<?xml version='1.0' encoding='UTF-8'?>
<!-- generated on 2024-04-19 17:25:24 by Eclipse SUMO netconvert Version 1.12.0
<configuration xmlns:xsi="http://www.w3.org/2001/XMLSchema-instance" xsi:noNamespaceSchemaLocation="http://sumo.dlr.de/xsd/netconvertConfiguration.xsd">

    <input>
        <type-files value="/home/pi/Desktop/PI_Digital_Twin/Adapters/co_simulation/map_adjustor/xodr_to_netxml/opendrive_netconvert.typ.xml"/>
        <opendrive-files value="/home/pi/Desktop/PI_Digital_Twin/Adapters/co_simulation/map_adjustor/osm_to_xodr/map-clean.xodr"/>
    </input>

    <output>
        <output-file value="/tmp/tmpdot1wwyp/map-clean.net.xml"/>
        <output.original-names value="true"/>
    </output>

    <processing>
        <geometry.remove value="true"/>
        <geometry.min-radius.fix value="true"/>
        <geometry.max-grade.fix value="false"/>
    </processing>

    <tls_building>
        <tls.discard-loaded value="true"/>
        <tls.left-green.time value="0"/>
    </tls_building>

    <junctions>
        <rectangular-lane-cut value="true"/>
    </junctions>

    <formats>
        <opendrive.import-all-lanes value="true"/>
        <opendrive.curve-resolution value="1"/>
    </formats>

    <report>
        <aggregate-warnings value="5"/>
    </report>

</configuration>
-->
<net xmlns:xsi="http://www.w3.org/2001/XMLSchema-instance" version="1.9" junctionCornerDetail="5" rectangularLaneCut="true" limitTurnSpeed="5.50" xsi:noNamespaceSchemaLocation="http://sumo.dlr.de/xsd/net_file.xsd">
  <location netOffset="-21.05,-1.23" convBoundary="0.00,0.00,2252.45,2223.95" origBoundary="0.000000,0.000000,0.000000,0.000000" projParameter="+proj=tmerc +lat_0=40.62593220101431 +lon_0=-8.662402537773238 +x_0=0 +y_0=0 +k_0=1.0 +ellps=GRS80 +units=m +no_defs"/>
  <type id="bidirectional" priority="1" speed="1.39" disallow="pedestrian tram rail_urban rail rail_electric rail_fast ship" width="3.65"/>
  <type id="biking" priority="-1" speed="5.56" allow="bicycle" width="1.50"/>
  <type id="border" priority="0" speed="1.39" disallow="all" discard="1" width="0.10"/>
  <type id="driving" priority="1" speed="13.89" disallow="pedestrian tram rail_urban rail rail_electric rail_fast ship" width="3.65"/>
  <type id="entry" priority="1" speed="22.22" disallow="pedestrian tram rail_urban rail rail_electric rail_fast ship" width="3.65"/>
  <type id="exit" priority="1" speed="22.22" disallow="pedestrian tram rail_urban rail rail_electric rail_fast ship" width="3.65"/>
  <type id="median" priority="0" speed="1.39" disallow="all" discard="1" width="0.10"/>
  <type id="mwyEntry" priority="1" speed="22.22" allow="private emergency authority army vip passenger hov taxi bus coach delivery truck trailer motorcycle evehicle custom1 custom2" width="3.65"/>
  <type id="mwyExit" priority="1" speed="22.22" allow="private emergency authority army vip passenger hov taxi bus coach delivery truck trailer motorcycle evehicle custom1 custom2" width="3.65"/>
  <type id="none" priority="0" speed="1.39" disallow="all" discard="1" width="1.00"/>
  <type id="offRamp" priority="1" speed="22.22" allow="private emergency authority army vip passenger hov taxi bus coach delivery truck trailer motorcycle evehicle custom1 custom2" width="3.65"/>
  <type id="onRamp" priority="1" speed="22.22" allow="private emergency authority army vip passenger hov taxi bus coach delivery truck trailer motorcycle evehicle custom1 custom2" width="3.65"/>
  <type id="parking" priority="1" speed="1.39" disallow="pedestrian tram rail_urban rail rail_electric rail_fast ship" width="2.50"/>
  <type id="rail" priority="3" speed="33.33" allow="rail_urban rail rail_electric rail_fast" width="3.65"/>
  <type id="restricted" priority="0" speed="13.89" disallow="all" width="3.65"/>
  <type id="roadWorks" priority="0" speed="1.39" allow="authority" width="3.65"/>
  <type id="shoulder" priority="0" speed="1.39" disallow="all" discard="1" width="1.00"/>
  <type id="sidewalk" priority="-2" speed="2.78" allow="pedestrian" width="2.50"/>
  <type id="special1" priority="1" speed="22.22" allow="custom1" discard="1" width="3.65"/>
  <type id="special2" priority="1" speed="22.22" allow="custom2" discard="1" width="3.65"/>
  <type id="special3" priority="1" speed="22.22" allow="custom1 custom2" discard="1" width="3.65"/>
  <type id="stop" priority="1" speed="13.89" disallow="pedestrian tram rail_urban rail rail_electric rail_fast ship" width="3.65"/>
  <type id="tram" priority="2" speed="13.89" allow="tram" width="3.65"/>
  <edge id=":10_0" function="internal">
    <lane id=":10_0_0" index="0" allow="pedestrian" speed="7.27" length="8.88" width="2.80" shape="1370.57,127.37 1367.32,127.77 1364.92,128.42 1363.36,129.30 1362.64,130.41">
      <param key="origId" value="5466_-2"/>
    </lane>
    <lane id=":10_0_1" index="1" disallow="pedestrian tram rail_urban rail rail_electric rail_fast ship" speed="8.64" length="12.70" width="3.35" shape="1370.33,124.30 1366.07,124.92 1362.87,126.03 1360.73,127.62 1359.65,129.70">
      <param key="origId" value="5466_-1"/>
    </lane>
  </edge>
  <edge id=":10_2" function="internal">
    <lane id=":10_2_0" index="0" disallow="pedestrian tram rail_urban rail rail_electric rail_fast ship" speed="13.89" length="14.45" width="3.35" shape="1370.33,124.30 1366.11,124.12 1363.25,123.22 1360.39,122.36 1356.19,122.27">
      <param key="origId" value="5467_-2"/>
    </lane>
    <lane id=":10_2_1" index="1" disallow="pedestrian tram rail_urban rail rail_electric rail_fast ship" speed="13.89" length="14.45" width="3.35" shape="1370.06,120.96 1365.83,120.78 1362.95,119.89 1360.07,119.02 1355.84,118.94">
      <param key="origId" value="5467_-1"/>
    </lane>
  </edge>
  <edge id=":101_0" function="internal">
    <lane id=":101_0_0" index="0" disallow="pedestrian tram rail_urban rail rail_electric rail_fast ship" speed="6.73" length="6.56" width="3.35" shape="186.40,2001.98 185.96,2000.32 185.15,1998.99 183.95,1997.98 182.38,1997.29">
      <param key="origId" value="6461_-1"/>
    </lane>
  </edge>
  <edge id=":101_1" function="internal">
    <lane id=":101_1_0" index="0" disallow="pedestrian tram rail_urban rail rail_electric rail_fast ship" speed="9.56" length="17.30" width="3.35" shape="186.40,2001.98 187.16,2000.31 189.84,1998.35 194.45,1996.09 200.98,1993.53">
      <param key="origId" value="6462_-1"/>
    </lane>
  </edge>
  <edge id=":101_2" function="internal">
    <lane id=":101_2_0" index="0" disallow="pedestrian tram rail_urban rail rail_electric rail_fast ship" speed="5.63" length="12.74" width="3.35" shape="186.40,2001.98 189.24,1999.27 191.61,1998.68 193.50,2000.22 194.91,2003.89">
      <param key="origId" value="6463_-1"/>
    </lane>
  </edge>
  <edge id=":101_3" function="internal">
    <lane id=":101_3_0" index="0" disallow="pedestrian tram rail_urban rail rail_electric rail_fast ship" speed="8.85" length="10.69" width="3.35" shape="202.11,1996.68 199.27,1998.00 197.12,1999.64 195.67,2001.60 194.91,2003.89">
      <param key="origId" value="6464_-1"/>
    </lane>
  </edge>
  <edge id=":101_4" function="internal">
    <lane id=":101_4_0" index="0" disallow="pedestrian tram rail_urban rail rail_electric rail_fast ship" speed="17.31" length="19.93" width="3.35" shape="202.11,1996.68 197.72,1997.69 192.28,1998.16 186.82,1998.03 182.38,1997.29">
      <param key="origId" value="6465_-1"/>
    </lane>
  </edge>
  <edge id=":101_5" function="internal">
    <lane id=":101_5_0" index="0" disallow="pedestrian tram rail_urban rail rail_electric rail_fast ship" speed="16.41" length="17.86" width="3.35" shape="183.33,1994.08 187.45,1994.83 192.19,1994.97 196.91,1994.53 200.98,1993.53">
      <param key="origId" value="6466_-1"/>
    </lane>
  </edge>
  <edge id=":101_6" function="internal">
    <lane id=":101_6_0" index="0" disallow="pedestrian tram rail_urban rail rail_electric rail_fast ship" speed="8.99" length="4.10" width="3.35" shape="183.33,1994.08 187.17,1995.50">
      <param key="origId" value="6467_-1"/>
    </lane>
  </edge>
  <edge id=":101_7" function="internal">
    <lane id=":101_7_0" index="0" disallow="pedestrian tram rail_urban rail rail_electric rail_fast ship" speed="8.99" length="12.34" width="3.35" shape="187.17,1995.50 188.78,1996.09 192.52,1998.39 194.57,2001.00 194.91,2003.89">
      <param key="origId" value="6467_-1"/>
    </lane>
  </edge>
  <edge id=":102_0" function="internal">
    <lane id=":102_0_0" index="0" disallow="pedestrian tram rail_urban rail rail_electric rail_fast ship" speed="15.17" length="16.23" width="3.35" shape="216.89,1988.41 214.25,1991.19 210.72,1993.33 206.80,1994.99 203.03,1996.35">
      <param key="origId" value="5647_-1"/>
    </lane>
  </edge>
  <edge id=":102_1" function="internal">
    <lane id=":102_1_0" index="0" disallow="pedestrian tram rail_urban rail rail_electric rail_fast ship" speed="15.25" length="13.97" width="3.35" shape="201.89,1993.20 204.84,1991.84 207.04,1990.11 209.09,1987.70 211.60,1984.32">
      <param key="origId" value="5648_-1"/>
    </lane>
    <lane id=":102_1_1" index="1" disallow="pedestrian tram rail_urban rail rail_electric rail_fast ship" speed="15.86" length="13.97" width="3.35" shape="201.89,1993.20 205.22,1992.21 208.27,1991.26 211.23,1989.56 214.29,1986.32">
      <param key="origId" value="5649_-1"/>
    </lane>
  </edge>
  <edge id=":103_0" function="internal">
    <lane id=":103_0_0" index="0" disallow="pedestrian tram rail_urban rail rail_electric rail_fast ship" speed="3.73" length="4.89" width="3.35" shape="110.46,1932.48 110.24,1930.98 110.58,1930.11 111.48,1929.86 112.94,1930.23"/>
  </edge>
  <edge id=":104_0" function="internal">
    <lane id=":104_0_0" index="0" disallow="pedestrian tram rail_urban rail rail_electric rail_fast ship" speed="3.73" length="4.89" width="3.35" shape="180.45,161.35 180.66,159.85 181.24,159.11 182.17,159.13 183.47,159.90"/>
  </edge>
  <edge id=":105_0" function="internal">
    <lane id=":105_0_0" index="0" allow="pedestrian" speed="7.10" length="4.24" width="2.80" shape="1141.97,143.82 1138.95,143.52 1138.01,142.76">
      <param key="origId" value="6225_-2"/>
    </lane>
    <lane id=":105_0_1" index="1" disallow="pedestrian tram rail_urban rail rail_electric rail_fast ship" speed="5.53" length="3.26" width="3.35" shape="1141.65,140.76 1140.28,140.53 1139.41,139.49 1139.30,138.98">
      <param key="origId" value="6225_-1"/>
    </lane>
  </edge>
  <edge id=":105_4" function="internal">
    <lane id=":105_4_0" index="0" allow="pedestrian" speed="7.10" length="8.74" width="2.80" shape="1138.01,142.76 1136.96,141.89 1136.02,138.94 1136.11,134.66">
      <param key="origId" value="6225_-2"/>
    </lane>
  </edge>
  <edge id=":105_5" function="internal">
    <lane id=":105_5_0" index="0" disallow="pedestrian tram rail_urban rail rail_electric rail_fast ship" speed="5.53" length="3.98" width="3.35" shape="1139.30,138.98 1139.03,137.66 1139.16,135.04">
      <param key="origId" value="6225_-1"/>
    </lane>
  </edge>
  <edge id=":105_2" function="internal">
    <lane id=":105_2_0" index="0" allow="pedestrian" speed="13.89" length="70.85" width="2.80" shape="1111.18,198.98 1136.11,134.66">
      <param key="origId" value="6226_-2"/>
    </lane>
    <lane id=":105_2_1" index="1" disallow="pedestrian tram rail_urban rail rail_electric rail_fast ship" speed="13.89" length="70.85" width="3.35" shape="1110.93,202.05 1139.16,135.04">
      <param key="origId" value="6226_-1"/>
    </lane>
  </edge>
  <edge id=":106_0" function="internal">
    <lane id=":106_0_0" index="0" allow="pedestrian" speed="13.89" length="15.22" width="2.80" shape="969.21,367.07 967.42,382.17">
      <param key="origId" value="5840_-2"/>
    </lane>
    <lane id=":106_0_1" index="1" disallow="pedestrian tram rail_urban rail rail_electric rail_fast ship" speed="13.89" length="15.22" width="3.35" shape="966.16,366.69 964.36,381.82">
      <param key="origId" value="5840_-1"/>
    </lane>
  </edge>
  <edge id=":106_2" function="internal">
    <lane id=":106_2_0" index="0" disallow="pedestrian tram rail_urban rail rail_electric rail_fast ship" speed="8.31" length="4.30" width="3.35" shape="966.16,366.69 965.05,370.70 964.95,370.81">
      <param key="origId" value="5841_-1"/>
    </lane>
  </edge>
  <edge id=":106_9" function="internal">
    <lane id=":106_9_0" index="0" disallow="pedestrian tram rail_urban rail rail_electric rail_fast ship" speed="8.31" length="11.17" width="3.35" shape="964.95,370.81 962.86,373.37 959.60,374.71 955.26,374.73">
      <param key="origId" value="5841_-1"/>
    </lane>
  </edge>
  <edge id=":106_3" function="internal">
    <lane id=":106_3_0" index="0" allow="pedestrian" speed="4.99" length="5.04" width="2.80" shape="956.11,368.36 957.58,368.37 958.69,367.97 959.42,367.15 959.78,365.91">
      <param key="origId" value="5842_-2"/>
    </lane>
    <lane id=":106_3_1" index="1" disallow="pedestrian tram rail_urban rail rail_electric rail_fast ship" speed="6.81" length="10.03" width="3.35" shape="955.71,371.41 958.55,371.41 960.68,370.55 962.11,368.84 962.84,366.28">
      <param key="origId" value="5842_-1"/>
    </lane>
  </edge>
  <edge id=":106_5" function="internal">
    <lane id=":106_5_0" index="0" disallow="pedestrian tram rail_urban rail rail_electric rail_fast ship" speed="8.37" length="15.38" width="3.35" shape="955.71,371.41 959.89,372.54 962.72,374.66 964.21,377.75 964.36,381.82">
      <param key="origId" value="5843_-1"/>
    </lane>
  </edge>
  <edge id=":106_6" function="internal">
    <lane id=":106_6_0" index="0" allow="pedestrian" speed="5.08" length="5.16" width="2.80" shape="957.98,381.09 957.91,379.81 957.36,378.83 956.35,378.16 954.86,377.78">
      <param key="origId" value="5844_-2"/>
    </lane>
    <lane id=":106_6_1" index="1" disallow="pedestrian tram rail_urban rail rail_electric rail_fast ship" speed="6.89" length="10.05" width="3.35" shape="961.03,381.44 960.93,378.83 959.93,376.83 958.04,375.47 955.26,374.73">
      <param key="origId" value="5844_-1"/>
    </lane>
  </edge>
  <edge id=":106_8" function="internal">
    <lane id=":106_8_0" index="0" disallow="pedestrian tram rail_urban rail rail_electric rail_fast ship" speed="13.89" length="15.26" width="3.35" shape="961.03,381.44 962.84,366.28">
      <param key="origId" value="5845_-1"/>
    </lane>
  </edge>
  <edge id=":107_0" function="internal">
    <lane id=":107_0_0" index="0" disallow="pedestrian tram rail_urban rail rail_electric rail_fast ship" speed="3.73" length="4.89" width="3.35" shape="1427.47,260.51 1427.79,261.98 1427.51,262.88 1426.63,263.19 1425.14,262.92"/>
  </edge>
  <edge id=":108_0" function="internal">
    <lane id=":108_0_0" index="0" allow="pedestrian" speed="13.38" length="14.32" width="2.80" shape="1667.81,1976.67 1666.44,1972.91 1665.69,1970.05 1664.38,1967.74 1661.32,1965.69">
      <param key="origId" value="5685_-2"/>
    </lane>
    <lane id=":108_0_1" index="1" disallow="pedestrian tram rail_urban rail rail_electric rail_fast ship" speed="14.38" length="14.32" width="3.35" shape="1670.58,1975.33 1668.92,1971.03 1667.90,1967.81 1666.23,1965.24 1662.63,1962.91">
      <param key="origId" value="5685_-1"/>
    </lane>
  </edge>
  <edge id=":108_2" function="internal">
    <lane id=":108_2_0" index="0" allow="pedestrian" speed="20.84" length="15.59" width="2.80" shape="1676.17,1970.98 1671.69,1969.60 1668.61,1968.68 1665.59,1967.59 1661.32,1965.69">
      <param key="origId" value="5686_-2"/>
    </lane>
    <lane id=":108_2_1" index="1" disallow="pedestrian tram rail_urban rail rail_electric rail_fast ship" speed="20.84" length="15.59" width="3.35" shape="1677.12,1968.05 1672.75,1966.71 1669.74,1965.82 1666.80,1964.76 1662.63,1962.91">
      <param key="origId" value="5686_-1"/>
    </lane>
  </edge>
  <edge id=":109_0" function="internal">
    <lane id=":109_0_0" index="0" allow="pedestrian" speed="6.00" length="6.41" width="2.80" shape="506.41,1427.98 505.27,1427.48 503.93,1427.56 502.39,1428.23 500.66,1429.49">
      <param key="origId" value="5849_-2"/>
    </lane>
    <lane id=":109_0_1" index="1" disallow="pedestrian tram rail_urban rail rail_electric rail_fast ship" speed="7.60" length="10.61" width="3.35" shape="508.28,1425.54 506.16,1424.48 503.85,1424.39 501.35,1425.28 498.67,1427.15">
      <param key="origId" value="5849_-1"/>
    </lane>
  </edge>
  <edge id=":109_2" function="internal">
    <lane id=":109_2_0" index="0" disallow="pedestrian tram rail_urban rail rail_electric rail_fast ship" speed="13.89" length="15.18" width="3.35" shape="508.28,1425.54 496.58,1415.87">
      <param key="origId" value="5850_-1"/>
    </lane>
  </edge>
  <edge id=":109_3" function="internal">
    <lane id=":109_3_0" index="0" allow="pedestrian" speed="13.89" length="14.84" width="2.80" shape="500.83,1411.05 512.19,1420.44">
      <param key="origId" value="5851_-2"/>
    </lane>
    <lane id=":109_3_1" index="1" disallow="pedestrian tram rail_urban rail rail_electric rail_fast ship" speed="13.89" length="14.84" width="3.35" shape="498.80,1413.35 510.32,1422.88">
      <param key="origId" value="5851_-1"/>
    </lane>
  </edge>
  <edge id=":109_5" function="internal">
    <lane id=":109_5_0" index="0" disallow="pedestrian tram rail_urban rail rail_electric rail_fast ship" speed="8.15" length="4.41" width="3.35" shape="498.80,1413.35 501.65,1416.72">
      <param key="origId" value="5852_-1"/>
    </lane>
  </edge>
  <edge id=":109_10" function="internal">
    <lane id=":109_10_0" index="0" disallow="pedestrian tram rail_urban rail rail_electric rail_fast ship" speed="8.15" length="11.89" width="3.35" shape="501.65,1416.72 501.75,1416.83 502.72,1420.29 501.69,1423.73 498.67,1427.15">
      <param key="origId" value="5852_-1"/>
    </lane>
  </edge>
  <edge id=":109_6" function="internal">
    <lane id=":109_6_0" index="0" allow="pedestrian" speed="4.70" length="4.82" width="2.80" shape="494.51,1422.25 495.40,1421.24 495.71,1420.22 495.42,1419.20 494.55,1418.17">
      <param key="origId" value="5853_-2"/>
    </lane>
    <lane id=":109_6_1" index="1" disallow="pedestrian tram rail_urban rail rail_electric rail_fast ship" speed="6.61" length="10.32" width="3.35" shape="496.50,1424.60 498.41,1422.43 499.06,1420.25 498.45,1418.07 496.58,1415.87">
      <param key="origId" value="5853_-1"/>
    </lane>
  </edge>
  <edge id=":109_8" function="internal">
    <lane id=":109_8_0" index="0" disallow="pedestrian tram rail_urban rail rail_electric rail_fast ship" speed="8.99" length="15.20" width="3.35" shape="496.50,1424.60 500.22,1422.06 503.76,1420.93 507.13,1421.21 510.32,1422.88">
      <param key="origId" value="5854_-1"/>
    </lane>
  </edge>
  <edge id=":109_9" function="internal">
    <lane id=":109_9_0" index="0" disallow="pedestrian tram rail_urban rail rail_electric rail_fast ship" speed="3.73" length="4.89" width="3.35" shape="496.50,1424.60 498.00,1424.42 498.86,1424.79 499.08,1425.70 498.67,1427.15">
      <param key="origId" value="5855_-1"/>
    </lane>
  </edge>
  <edge id=":11_0" function="internal">
    <lane id=":11_0_0" index="0" allow="pedestrian" speed="5.53" length="6.24" width="2.80" shape="1285.38,214.72 1285.41,216.89 1285.80,218.46 1286.56,219.46 1287.68,219.87">
      <param key="origId" value="5478_-2"/>
    </lane>
    <lane id=":11_0_1" index="1" disallow="pedestrian tram rail_urban rail rail_electric rail_fast ship" speed="7.21" length="11.06" width="3.35" shape="1282.31,214.53 1282.45,218.02 1283.34,220.58 1285.00,222.22 1287.41,222.93">
      <param key="origId" value="5478_-1"/>
    </lane>
  </edge>
  <edge id=":11_2" function="internal">
    <lane id=":11_2_0" index="0" disallow="pedestrian tram rail_urban rail rail_electric rail_fast ship" speed="8.21" length="4.61" width="3.35" shape="1282.31,214.53 1281.45,218.67 1281.23,218.98">
      <param key="origId" value="5479_-1"/>
    </lane>
  </edge>
  <edge id=":11_10" function="internal">
    <lane id=":11_10_0" index="0" disallow="pedestrian tram rail_urban rail rail_electric rail_fast ship" speed="8.21" length="10.74" width="3.35" shape="1281.23,218.98 1279.47,221.49 1276.36,222.99 1272.14,223.17">
      <param key="origId" value="5479_-1"/>
    </lane>
  </edge>
  <edge id=":11_3" function="internal">
    <lane id=":11_3_0" index="0" allow="pedestrian" speed="4.81" length="4.71" width="2.80" shape="1272.78,216.78 1274.08,216.72 1275.03,216.26 1275.64,215.40 1275.90,214.12">
      <param key="origId" value="5480_-2"/>
    </lane>
    <lane id=":11_3_1" index="1" disallow="pedestrian tram rail_urban rail rail_electric rail_fast ship" speed="6.68" length="9.81" width="3.35" shape="1272.47,219.84 1275.17,219.72 1277.15,218.76 1278.42,216.96 1278.97,214.32">
      <param key="origId" value="5480_-1"/>
    </lane>
  </edge>
  <edge id=":11_5" function="internal">
    <lane id=":11_5_0" index="0" disallow="pedestrian tram rail_urban rail rail_electric rail_fast ship" speed="13.89" length="15.29" width="3.35" shape="1272.47,219.84 1276.94,220.55 1279.94,221.42 1282.94,222.27 1287.41,222.93">
      <param key="origId" value="5481_-1"/>
    </lane>
  </edge>
  <edge id=":11_6" function="internal">
    <lane id=":11_6_0" index="0" allow="pedestrian" speed="4.92" length="4.85" width="2.80" shape="1274.63,229.43 1274.57,228.15 1274.08,227.19 1273.17,226.55 1271.83,226.23">
      <param key="origId" value="5482_-2"/>
    </lane>
    <lane id=":11_6_1" index="1" disallow="pedestrian tram rail_urban rail rail_electric rail_fast ship" speed="6.76" length="9.82" width="3.35" shape="1277.69,229.75 1277.57,227.10 1276.61,225.12 1274.80,223.81 1272.14,223.17">
      <param key="origId" value="5482_-1"/>
    </lane>
  </edge>
  <edge id=":11_8" function="internal">
    <lane id=":11_8_0" index="0" disallow="pedestrian tram rail_urban rail rail_electric rail_fast ship" speed="13.89" length="15.49" width="3.35" shape="1277.69,229.75 1278.97,214.32">
      <param key="origId" value="5483_-1"/>
    </lane>
  </edge>
  <edge id=":11_9" function="internal">
    <lane id=":11_9_0" index="0" disallow="pedestrian tram rail_urban rail rail_electric rail_fast ship" speed="7.87" length="9.70" width="3.35" shape="1277.69,229.75 1278.59,226.47 1280.51,224.24 1283.45,223.06 1283.64,223.05">
      <param key="origId" value="5484_-1"/>
    </lane>
  </edge>
  <edge id=":11_11" function="internal">
    <lane id=":11_11_0" index="0" disallow="pedestrian tram rail_urban rail rail_electric rail_fast ship" speed="7.87" length="3.78" width="3.35" shape="1283.64,223.05 1287.41,222.93">
      <param key="origId" value="5484_-1"/>
    </lane>
  </edge>
  <edge id=":110_0" function="internal">
    <lane id=":110_0_0" index="0" allow="pedestrian" speed="13.89" length="7.06" width="2.80" shape="396.46,1335.62 394.93,1334.25 394.10,1333.06 393.25,1331.90 391.66,1330.62">
      <param key="origId" value="5413_-2"/>
    </lane>
    <lane id=":110_0_1" index="1" disallow="pedestrian tram rail_urban rail rail_electric rail_fast ship" speed="13.89" length="7.06" width="3.35" shape="398.24,1333.12 396.68,1331.72 395.82,1330.51 394.94,1329.33 393.31,1328.02">
      <param key="origId" value="5413_-1"/>
    </lane>
  </edge>
  <edge id=":110_2" function="internal">
    <lane id=":110_2_0" index="0" allow="pedestrian" speed="10.89" length="5.71" width="2.80" shape="399.09,1323.99 399.71,1325.32 400.19,1326.23 400.84,1326.99 401.98,1327.89">
      <param key="origId" value="5414_-2"/>
    </lane>
    <lane id=":110_2_1" index="1" disallow="pedestrian tram rail_urban rail rail_electric rail_fast ship" speed="12.46" length="5.71" width="3.35" shape="396.33,1325.34 397.15,1327.07 397.81,1328.25 398.69,1329.23 400.19,1330.39">
      <param key="origId" value="5414_-1"/>
    </lane>
  </edge>
  <edge id=":110_4" function="internal">
    <lane id=":110_4_0" index="0" disallow="pedestrian tram rail_urban rail rail_electric rail_fast ship" speed="4.95" length="3.00" width="3.35" shape="396.33,1325.34 397.36,1328.01 397.34,1328.14">
      <param key="origId" value="5415_-1"/>
    </lane>
  </edge>
  <edge id=":110_5" function="internal">
    <lane id=":110_5_0" index="0" disallow="pedestrian tram rail_urban rail rail_electric rail_fast ship" speed="4.95" length="5.42" width="3.35" shape="397.34,1328.14 397.20,1329.35 395.85,1329.35 393.31,1328.02">
      <param key="origId" value="5415_-1"/>
    </lane>
  </edge>
  <edge id=":111_0" function="internal">
    <lane id=":111_0_0" index="0" allow="pedestrian" speed="13.89" length="16.77" width="2.80" shape="514.09,1421.90 527.33,1432.24">
      <param key="origId" value="6088_-2"/>
    </lane>
    <lane id=":111_0_1" index="1" disallow="pedestrian tram rail_urban rail rail_electric rail_fast ship" speed="13.89" length="16.77" width="3.35" shape="512.22,1424.34 525.42,1434.65">
      <param key="origId" value="6088_-1"/>
    </lane>
  </edge>
  <edge id=":111_2" function="internal">
    <lane id=":111_2_0" index="0" disallow="pedestrian tram rail_urban rail rail_electric rail_fast ship" speed="8.12" length="16.78" width="3.35" shape="512.22,1424.34 515.53,1427.73 516.71,1431.19 515.77,1434.72 512.70,1438.33">
      <param key="origId" value="6089_-1"/>
    </lane>
  </edge>
  <edge id=":111_3" function="internal">
    <lane id=":111_3_0" index="0" allow="pedestrian" speed="4.66" length="4.88" width="2.80" shape="508.45,1433.51 509.34,1432.46 509.62,1431.43 509.27,1430.43 508.31,1429.44">
      <param key="origId" value="6090_-2"/>
    </lane>
    <lane id=":111_3_1" index="1" disallow="pedestrian tram rail_urban rail rail_electric rail_fast ship" speed="6.58" length="10.57" width="3.35" shape="510.49,1435.81 512.42,1433.54 513.01,1431.32 512.27,1429.14 510.18,1427.00">
      <param key="origId" value="6090_-1"/>
    </lane>
  </edge>
  <edge id=":111_5" function="internal">
    <lane id=":111_5_0" index="0" disallow="pedestrian tram rail_urban rail rail_electric rail_fast ship" speed="9.21" length="2.96" width="3.35" shape="510.49,1435.81 512.92,1434.14">
      <param key="origId" value="6091_-1"/>
    </lane>
  </edge>
  <edge id=":111_6" function="internal">
    <lane id=":111_6_0" index="0" disallow="pedestrian tram rail_urban rail rail_electric rail_fast ship" speed="9.21" length="13.52" width="3.35" shape="512.92,1434.14 514.33,1433.17 518.10,1432.10 521.80,1432.59 525.42,1434.65">
      <param key="origId" value="6091_-1"/>
    </lane>
  </edge>
  <edge id=":112_0" function="internal">
    <lane id=":112_0_0" index="0" allow="pedestrian" speed="13.89" length="2.95" width="2.80" shape="556.32,1579.86 555.81,1576.85">
      <param key="origId" value="6319_-2"/>
    </lane>
    <lane id=":112_0_1" index="1" disallow="pedestrian tram rail_urban rail rail_electric rail_fast ship" speed="13.89" length="2.95" width="3.35" shape="558.46,1577.65 558.12,1574.83">
      <param key="origId" value="6319_-1"/>
    </lane>
  </edge>
  <edge id=":113_0" function="internal">
    <lane id=":113_0_0" index="0" allow="pedestrian" speed="13.89" length="11.84" width="2.80" shape="571.02,1578.59 564.89,1588.70">
      <param key="origId" value="6320_-2"/>
    </lane>
    <lane id=":113_0_1" index="1" disallow="pedestrian tram rail_urban rail rail_electric rail_fast ship" speed="13.89" length="11.84" width="3.35" shape="568.40,1576.98 562.25,1587.12">
      <param key="origId" value="6320_-1"/>
    </lane>
  </edge>
  <edge id=":113_2" function="internal">
    <lane id=":113_2_0" index="0" disallow="pedestrian tram rail_urban rail rail_electric rail_fast ship" speed="6.88" length="7.62" width="3.35" shape="568.40,1576.98 566.30,1579.46 563.97,1580.42 562.16,1580.03">
      <param key="origId" value="6321_-1"/>
    </lane>
  </edge>
  <edge id=":113_5" function="internal">
    <lane id=":113_5_0" index="0" disallow="pedestrian tram rail_urban rail rail_electric rail_fast ship" speed="6.88" length="4.26" width="3.35" shape="562.16,1580.03 561.40,1579.86 558.60,1577.79">
      <param key="origId" value="6321_-1"/>
    </lane>
  </edge>
  <edge id=":113_3" function="internal">
    <lane id=":113_3_0" index="0" allow="pedestrian" speed="5.01" length="4.17" width="2.80" shape="556.74,1583.81 557.23,1582.74 557.34,1581.74 557.09,1580.83 556.46,1580.00">
      <param key="origId" value="6322_-2"/>
    </lane>
    <lane id=":113_3_1" index="1" disallow="pedestrian tram rail_urban rail rail_electric rail_fast ship" speed="6.86" length="8.34" width="3.35" shape="559.38,1585.40 560.31,1583.30 560.49,1581.33 559.92,1579.49 558.60,1577.79">
      <param key="origId" value="6322_-1"/>
    </lane>
  </edge>
  <edge id=":114_0" function="internal">
    <lane id=":114_0_0" index="0" allow="pedestrian" speed="13.89" length="15.37" width="2.80" shape="615.25,1271.15 605.08,1282.71">
      <param key="origId" value="5938_-2"/>
    </lane>
    <lane id=":114_0_1" index="1" disallow="pedestrian tram rail_urban rail rail_electric rail_fast ship" speed="13.89" length="15.37" width="3.35" shape="612.93,1269.13 602.79,1280.66">
      <param key="origId" value="5938_-1"/>
    </lane>
  </edge>
  <edge id=":114_2" function="internal">
    <lane id=":114_2_0" index="0" disallow="pedestrian tram rail_urban rail rail_electric rail_fast ship" speed="6.93" length="10.86" width="3.35" shape="612.93,1269.13 610.06,1272.10 607.63,1273.84 605.64,1274.36 604.10,1273.66">
      <param key="origId" value="5939_-1"/>
    </lane>
  </edge>
  <edge id=":114_3" function="internal">
    <lane id=":114_3_0" index="0" allow="pedestrian" speed="8.46" length="1.23" width="2.80" shape="608.63,1269.11 609.25,1270.17">
      <param key="origId" value="5940_-2"/>
    </lane>
    <lane id=":114_3_1" index="1" disallow="pedestrian tram rail_urban rail rail_electric rail_fast ship" speed="7.21" length="0.93" width="3.35" shape="606.46,1271.29 606.85,1272.13">
      <param key="origId" value="5940_-1"/>
    </lane>
  </edge>
  <edge id=":114_5" function="internal">