<routes xmlns:xsi="http://www.w3.org/2001/XMLSchema-instance" xsi:noNamespaceSchemaLocation="http://sumo.dlr.de/xsd/routes_file.xsd"><vehicle id="realdata_556497871" depart="296.899" departLane="best" departSpeed="1" type="vehicle.ford.mustang" color="1,0,0"><route edges="-1606" /></vehicle><vehicle id="realdata_598841360" depart="297.043" departLane="best" departSpeed="1" type="vehicle.ford.mustang" color="1,0,0"><route edges="-1623.244" /></vehicle><vehicle id="realdata_601127560" depart="297.211" departLane="best" departSpeed="1" type="vehicle.ford.mustang" color="1,0,0"><route edges="-1608" /></vehicle><vehicle id="realdata_601143824" depart="297.251" departLane="best" departSpeed="1" type="vehicle.ford.mustang" color="1,0,0"><route edges="-1608" /></vehicle><vehicle id="realdata_595280520" depart="297.324" departLane="best" departSpeed="1" type="vehicle.ford.mustang" color="1,0,0"><route edges="-1608" /></vehicle><vehicle id="realdata_565388238" depart="297.45" departLane="best" departSpeed="1" type="vehicle.ford.mustang" color="1,0,0"><route edges="-1606" /></vehicle><vehicle id="realdata_588242579" depart="297.517" departLane="best" departSpeed="1" type="vehicle.ford.mustang" color="1,0,0"><route edges="-1623.244" /></vehicle><vehicle id="realdata_558491947" depart="297.618" departLane="best" departSpeed="1" type="vehicle.ford.mustang" color="1,0,0"><route edges="-1606" /></vehicle><vehicle id="realdata_599646229" depart="297.645" departLane="best" departSpeed="1" type="vehicle.ford.mustang" color="1,0,0"><route edges="-1608" /></vehicle><vehicle id="realdata_593752431" depart="297.661" departLane="best" departSpeed="1" type="vehicle.ford.mustang" color="1,0,0"><route edges="-1623.244" /></vehicle><vehicle id="realdata_594633656" depart="297.813" departLane="best" departSpeed="1" type="vehicle.ford.mustang" color="1,0,0"><route edges="-1623.244" /></vehicle><vehicle id="realdata_594896602" depart="297.844" departLane="best" departSpeed="1" type="vehicle.ford.mustang" color="1,0,0"><route edges="-1608" /></vehicle><vehicle id="realdata_560171758" depart="298.139" departLane="best" departSpeed="1" type="vehicle.ford.mustang" color="1,0,0"><route edges="-1606" /></vehicle><vehicle id="realdata_601157483" depart="298.453" departLane="best" departSpeed="1" type="vehicle.ford.mustang" color="1,0,0"><route edges="-1623.244" /></vehicle></routes>