<?xml version="1.0" encoding="utf-8"?>
<routes xmlns:xsi="http://www.w3.org/2001/XMLSchema-instance" xsi:noNamespaceSchemaLocation="http://sumo.dlr.de/xsd/routes_file.xsd">
	<!--Vehicle with id 0 and type vehicle.dodge.charger_police_2020 depart at 3-->
	<vehicle id="0" type="vehicle.dodge.charger_police_2020" depart="3">
		<route edges="-1466 -1465 -1464 -1427"/>
	</vehicle>
	<!--Vehicle with id randomCar_1716589222468413375 and type vehicle.dodge.charger_police_2020 depart at 25-->
	<vehicle id="randomCar_1716589222468413375" type="vehicle.dodge.charger_police_2020" depart="25">
		<route edges="-1636 -1643 -1532 -1404 -1471 -1467 -1529 -1614 -1615 -1511 -1512 -1504 -1505 -1583 -1593 -1624 -1607 -1653 -1485 -1662 -1661 -1461"/>
	</vehicle>
	<!--Vehicle with id randomCar_1716589222480144270 and type vehicle.dodge.charger_police_2020 depart at 25-->
	<vehicle id="randomCar_1716589222480144270" type="vehicle.dodge.charger_police_2020" depart="25">
		<route edges="-1569 -1602 -1583 -1584 -1513 -1525 -1616 -1617 -1636 -1643 -1638"/>
	</vehicle>
	<!--Vehicle with id randomCar_1716589222486572478 and type vehicle.dodge.charger_police_2020 depart at 25-->
	<vehicle id="randomCar_1716589222486572478" type="vehicle.dodge.charger_police_2020" depart="25">
		<route edges="-1605 -1647 -1648 -1649 -1535 -1474 -1473 -1467 -1529 -1614 -1615 -1511 -1512 -1504 -1505 -1583 -1593 -1624 -1607 -1653 -1654 -1655 -1656 -1657 -1610 -1635"/>
	</vehicle>
	<!--Vehicle with id randomCar_1716589222489674429 and type vehicle.dodge.charger_police_2020 depart at 26-->
	<vehicle id="randomCar_1716589222489674429" type="vehicle.dodge.charger_police_2020" depart="26">
		<route edges="-1629 -1533 -1581 -1622 -1636 -1643 -1638 -1597 -1577 -1627 -1628 -1642"/>
	</vehicle>
	<!--Vehicle with id randomCar_1716589223089925940 and type vehicle.dodge.charger_police_2020 depart at 26-->
	<vehicle id="randomCar_1716589223089925940" type="vehicle.dodge.charger_police_2020" depart="26">
		<route edges="-1555 -1613 -1552 -1587 -1619 -1647 -1648 -1649 -1535 -1474 -1473 -1467 -1529 -1614 -1615 -1511 -1512 -1504 -1505 -1583 -1584 -1513"/>
	</vehicle>
	<!--Vehicle with id randomCar_1716589223093206894 and type vehicle.dodge.charger_police_2020 depart at 26-->
	<vehicle id="randomCar_1716589223093206894" type="vehicle.dodge.charger_police_2020" depart="26">
		<route edges="-1562 -1563 -1561 -1666 -1521 -1504 -1505 -1583 -1593 -1624 -1607 -1653 -1485 -1662 -1661 -1631 -1632 -1633 -1575 -1592"/>
	</vehicle>
	<!--Vehicle with id randomCar_1716589223096227645 and type vehicle.dodge.charger_police_2020 depart at 26-->
	<vehicle id="randomCar_1716589223096227645" type="vehicle.dodge.charger_police_2020" depart="26">
		<route edges="-1471 -1467 -1529 -1614 -1615 -1511 -1512 -1504 -1505 -1583 -1584"/>
	</vehicle>
	<!--Vehicle with id randomCar_1716589223098216578 and type vehicle.dodge.charger_police_2020 depart at 26-->
	<vehicle id="randomCar_1716589223098216578" type="vehicle.dodge.charger_police_2020" depart="26">
		<route edges="-1542 -1539 -1649 -1535 -1474 -1473 -1467 -1530"/>
	</vehicle>
	<!--Vehicle with id randomCar_1716589223099777604 and type vehicle.dodge.charger_police_2020 depart at 26-->
	<vehicle id="randomCar_1716589223099777604" type="vehicle.dodge.charger_police_2020" depart="26">
		<route edges="-1517 -1537 -1594 -1588 -1589 -1539 -1649 -1535 -1474 -1473"/>
	</vehicle>
	<!--Vehicle with id randomCar_1716589222483883733 and type vehicle.dodge.charger_police_2020 depart at 28-->
	<vehicle id="randomCar_1716589222483883733" type="vehicle.dodge.charger_police_2020" depart="28">
		<route edges="-1636 -1643 -1532 -1404 -1471 -1467 -1529 -1614 -1615 -1511 -1512 -1504"/>
	</vehicle>
</routes>
