<?xml version="1.0" encoding="utf-8"?>
<routes xmlns:xsi="http://www.w3.org/2001/XMLSchema-instance" xsi:noNamespaceSchemaLocation="http://sumo.dlr.de/xsd/routes_file.xsd">
	<!--Vehicle with id 0 and type vehicle.dodge.charger_police_2020 depart at 3-->
	<vehicle id="0" type="vehicle.dodge.charger_police_2020" depart="3">
		<route edges="-1466 -1465"/>
	</vehicle>
	<!--Vehicle with id randomCar_1716136329063650201 and type vehicle.dodge.charger_police_2020 depart at 12-->
	<vehicle id="randomCar_1716136329063650201" type="vehicle.dodge.charger_police_2020" depart="12">
		<route edges="-1581 -1622 -1636 -1645 -1531"/>
	</vehicle>
	<!--Vehicle with id randomCar_1716136329067119309 and type vehicle.dodge.charger_police_2020 depart at 12-->
	<vehicle id="randomCar_1716136329067119309" type="vehicle.dodge.charger_police_2020" depart="12">
		<route edges="-1462 -1461 -1661 -1631 -1427 -1493 -1489 -1495 -1456 -1626"/>
	</vehicle>
	<!--Vehicle with id randomCar_1716136329069472115 and type vehicle.dodge.charger_police_2020 depart at 13-->
	<vehicle id="randomCar_1716136329069472115" type="vehicle.dodge.charger_police_2020" depart="13">
		<route edges="-1553 -1555 -1613 -1552 -1587 -1619 -1647 -1648 -1649 -1535 -1474 -1473 -1467 -1529 -1614 -1615 -1511 -1512 -1504 -1505 -1583 -1593 -1624 -1607 -1653 -1485 -1662 -1661 -1631 -1427 -1493 -1489 -1502 -1498 -1499 -1500"/>
	</vehicle>
	<!--Vehicle with id randomCar_1716136329681061751 and type vehicle.dodge.charger_police_2020 depart at 13-->
	<vehicle id="randomCar_1716136329681061751" type="vehicle.dodge.charger_police_2020" depart="13">
		<route edges="-1596 -1597 -1598 -1630 -1533 -1581 -1622"/>
	</vehicle>
	<!--Vehicle with id randomCar_1716136329682720455 and type vehicle.dodge.charger_police_2020 depart at 13-->
	<vehicle id="randomCar_1716136329682720455" type="vehicle.dodge.charger_police_2020" depart="13">
		<route edges="-1532 -1404 -1471 -1467 -1529 -1614 -1615 -1511 -1512 -1504 -1505 -1583 -1593 -1624 -1607 -1653 -1654 -1655 -1656"/>
	</vehicle>
	<!--Vehicle with id randomCar_1716136329684586159 and type vehicle.dodge.charger_police_2020 depart at 13-->
	<vehicle id="randomCar_1716136329684586159" type="vehicle.dodge.charger_police_2020" depart="13">
		<route edges="-1555 -1613 -1552 -1587 -1619 -1647 -1542 -1435 -1434 -1595 -1596 -1391 -1471"/>
	</vehicle>
	<!--Vehicle with id randomCar_1716136329685447461 and type vehicle.dodge.charger_police_2020 depart at 13-->
	<vehicle id="randomCar_1716136329685447461" type="vehicle.dodge.charger_police_2020" depart="13">
		<route edges="-1610 -1635 -1609 -1613 -1552 -1587 -1619 -1647 -1648 -1649 -1535 -1474 -1473 -1467 -1529 -1614 -1615 -1511 -1512 -1504 -1505 -1583 -1593 -1624 -1607 -1653 -1485 -1662 -1661 -1631 -1427 -1493 -1489 -1495 -1456 -1626 -1414"/>
	</vehicle>
	<!--Vehicle with id randomCar_1716136329687576566 and type vehicle.dodge.charger_police_2020 depart at 13-->
	<vehicle id="randomCar_1716136329687576566" type="vehicle.dodge.charger_police_2020" depart="13">
		<route edges="-1417 -1553 -1555 -1613 -1552 -1587 -1619 -1647 -1542 -1435 -1434 -1595 -1596 -1597 -1577 -1627 -1564"/>
	</vehicle>
	<!--Vehicle with id randomCar_1716136329688601969 and type vehicle.dodge.charger_police_2020 depart at 14-->
	<vehicle id="randomCar_1716136329688601969" type="vehicle.dodge.charger_police_2020" depart="14">
		<route edges="-1476 -1421 -1607 -1653 -1654 -1655 -1656 -1657 -1610 -1635 -1609 -1613 -1552 -1587 -1619 -1647 -1542 -1435"/>
	</vehicle>
	<!--Vehicle with id randomCar_1716136330300103905 and type vehicle.dodge.charger_police_2020 depart at 14-->
	<vehicle id="randomCar_1716136330300103905" type="vehicle.dodge.charger_police_2020" depart="14">
		<route edges="-1550 -1663 -1664 -1665 -1666 -1521 -1504 -1505 -1583 -1593 -1624 -1607 -1653 -1485 -1662 -1661 -1631 -1427 -1493 -1489 -1495 -1456 -1626"/>
	</vehicle>
	<!--Vehicle with id randomCar_1716136330301620708 and type vehicle.dodge.charger_police_2020 depart at 14-->
	<vehicle id="randomCar_1716136330301620708" type="vehicle.dodge.charger_police_2020" depart="14">
		<route edges="-1404 -1638 -1597 -1577 -1627 -1628"/>
	</vehicle>
	<!--Vehicle with id randomCar_1716136330302943711 and type vehicle.dodge.charger_police_2020 depart at 14-->
	<vehicle id="randomCar_1716136330302943711" type="vehicle.dodge.charger_police_2020" depart="14">
		<route edges="-1452 -1574 -1477 -1483 -1655 -1656 -1657 -1610 -1635 -1609 -1613 -1552 -1587 -1619 -1647 -1542 -1435 -1434 -1595 -1596 -1597 -1577 -1627 -1564"/>
	</vehicle>
	<!--Vehicle with id randomCar_1716136330304654315 and type vehicle.dodge.charger_police_2020 depart at 14-->
	<vehicle id="randomCar_1716136330304654315" type="vehicle.dodge.charger_police_2020" depart="14">
		<route edges="-1486 -1472 -1471 -1467 -1529 -1614 -1615 -1511 -1512 -1504 -1505 -1583 -1593 -1624 -1607 -1653 -1485 -1662 -1661 -1631 -1427 -1493 -1489 -1495 -1456 -1626 -1663 -1559 -1560"/>
	</vehicle>
	<!--Vehicle with id randomCar_1716136330307153521 and type vehicle.dodge.charger_police_2020 depart at 14-->
	<vehicle id="randomCar_1716136330307153521" type="vehicle.dodge.charger_police_2020" depart="14">
		<route edges="-1456 -1626 -1663 -1664 -1665 -1666 -1521 -1504 -1569 -1602"/>
	</vehicle>
	<!--Vehicle with id randomCar_1716136330307657922 and type vehicle.dodge.charger_police_2020 depart at 14-->
	<vehicle id="randomCar_1716136330307657922" type="vehicle.dodge.charger_police_2020" depart="14">
		<route edges="-1556 -1637 -1635 -1609 -1613 -1552 -1587 -1619 -1647 -1648 -1649 -1535 -1474 -1473 -1467 -1529 -1614 -1615 -1511 -1512 -1504 -1505 -1583 -1593 -1624 -1607 -1653 -1485 -1662 -1661 -1631 -1427 -1493 -1489 -1495 -1456 -1626 -1663"/>
	</vehicle>
	<!--Vehicle with id randomCar_1716136330305810418 and type vehicle.dodge.charger_police_2020 depart at 15-->
	<vehicle id="randomCar_1716136330305810418" type="vehicle.dodge.charger_police_2020" depart="15">
		<route edges="-1581 -1622 -1529 -1614 -1615 -1511 -1512 -1504 -1505 -1583 -1593 -1624 -1607 -1653 -1485 -1662 -1661 -1631 -1427 -1493 -1489 -1502 -1498 -1499 -1500 -1501 -1487 -1488"/>
	</vehicle>
	<!--Vehicle with id randomCar_1716136330299388203 and type vehicle.dodge.charger_police_2020 depart at 16-->
	<vehicle id="randomCar_1716136330299388203" type="vehicle.dodge.charger_police_2020" depart="16">
		<route edges="-1553 -1555 -1613 -1552 -1587 -1619 -1647 -1542 -1435"/>
	</vehicle>
</routes>
