<?xml version="1.0" encoding="utf-8"?>
<routes xmlns:xsi="http://www.w3.org/2001/XMLSchema-instance" xsi:noNamespaceSchemaLocation="http://sumo.dlr.de/xsd/routes_file.xsd">
	<!--Vehicle with id 0 and type vehicle.dodge.charger_police_2020 depart at 3-->
	<vehicle id="0" type="vehicle.dodge.charger_police_2020" depart="3">
		<route edges="-1466 -1465 -1464 -1427"/>
	</vehicle>
	<!--Vehicle with id simulated1716827831334822425 and type vehicle.audi.a2 depart at 3-->
	<vehicle id="simulated1716827831334822425" type="vehicle.audi.a2" depart="3">
		<route edges=":3_3 -1483 -1655 -1656 -1657 -1658 -1508 -1509"/>
	</vehicle>
</routes>
