<?xml version="1.0" encoding="utf-8"?>
<routes xmlns:xsi="http://www.w3.org/2001/XMLSchema-instance" xsi:noNamespaceSchemaLocation="http://sumo.dlr.de/xsd/routes_file.xsd">
	<!--Vehicle with id 0 and type vehicle.dodge.charger_police_2020 depart at 3-->
	<vehicle id="0" type="vehicle.dodge.charger_police_2020" depart="3">
		<route edges="-1466 -1465"/>
	</vehicle>
	<!--Vehicle with id randomCar_1716082807747972763 and type vehicle.dodge.charger_police_2020 depart at 16-->
	<vehicle id="randomCar_1716082807747972763" type="vehicle.dodge.charger_police_2020" depart="16">
		<route edges="-1473 -1643 -1638 -1597 -1577 -1627 -1628 -1515 -1432"/>
	</vehicle>
	<!--Vehicle with id randomCar_1716082807754621681 and type vehicle.dodge.charger_police_2020 depart at 16-->
	<vehicle id="randomCar_1716082807754621681" type="vehicle.dodge.charger_police_2020" depart="16">
		<route edges="-1612 -1513 -1525 -1616 -1617 -1530 -1571 -1572"/>
	</vehicle>
	<!--Vehicle with id randomCar_1716082807756803787 and type vehicle.dodge.charger_police_2020 depart at 17-->
	<vehicle id="randomCar_1716082807756803787" type="vehicle.dodge.charger_police_2020" depart="17">
		<route edges="-1667 -1482 -1523 -1600 -1599 -1637 -1635 -1609 -1613 -1552 -1587 -1619 -1647 -1648 -1649 -1535 -1474 -1473 -1467 -1529 -1614 -1615 -1511 -1512 -1504 -1505 -1583 -1593 -1624 -1607 -1653 -1485 -1662 -1661 -1631 -1427 -1493 -1489 -1495 -1456 -1626 -1414 -1413"/>
	</vehicle>
	<!--Vehicle with id randomCar_1716082808363075945 and type vehicle.dodge.charger_police_2020 depart at 17-->
	<vehicle id="randomCar_1716082808363075945" type="vehicle.dodge.charger_police_2020" depart="17">
		<route edges="-1466 -1465 -1464 -1427 -1493 -1489 -1502 -1498 -1496"/>
	</vehicle>
	<!--Vehicle with id randomCar_1716082808364119348 and type vehicle.dodge.charger_police_2020 depart at 17-->
	<vehicle id="randomCar_1716082808364119348" type="vehicle.dodge.charger_police_2020" depart="17">
		<route edges="-1661 -1631 -1427 -1493 -1489 -1495 -1456 -1626"/>
	</vehicle>
	<!--Vehicle with id randomCar_1716082808365769252 and type vehicle.dodge.charger_police_2020 depart at 17-->
	<vehicle id="randomCar_1716082808365769252" type="vehicle.dodge.charger_police_2020" depart="17">
		<route edges="-1433 -1606 -1455 -1540 -1578 -1619 -1647 -1648 -1649 -1535 -1474 -1473 -1467 -1529 -1614 -1615 -1511 -1512 -1504 -1505 -1583 -1593 -1624 -1607 -1653 -1654 -1655 -1656 -1657 -1658 -1508 -1650"/>
	</vehicle>
	<!--Vehicle with id randomCar_1716082808367418957 and type vehicle.dodge.charger_police_2020 depart at 17-->
	<vehicle id="randomCar_1716082808367418957" type="vehicle.dodge.charger_police_2020" depart="17">
		<route edges="-1419 -1417 -1553 -1555 -1613 -1552 -1587 -1619 -1647 -1648 -1649 -1535 -1474 -1473 -1467"/>
	</vehicle>
	<!--Vehicle with id randomCar_1716082808368352459 and type vehicle.dodge.charger_police_2020 depart at 17-->
	<vehicle id="randomCar_1716082808368352459" type="vehicle.dodge.charger_police_2020" depart="17">
		<route edges="-1535 -1474 -1473 -1467 -1529 -1614 -1615 -1511 -1512 -1504 -1505 -1583 -1593 -1624 -1607 -1653 -1485 -1662 -1661 -1631 -1427 -1493 -1489 -1495 -1456 -1626 -1414 -1547 -1548 -1544"/>
	</vehicle>
	<!--Vehicle with id randomCar_1716082808369535062 and type vehicle.dodge.charger_police_2020 depart at 18-->
	<vehicle id="randomCar_1716082808369535062" type="vehicle.dodge.charger_police_2020" depart="18">
		<route edges="-1618 -1600 -1599 -1637 -1635 -1609 -1613 -1552 -1587 -1619 -1647 -1648 -1649 -1535 -1474 -1473 -1467 -1529 -1614 -1615 -1511 -1512 -1504 -1505 -1583 -1593 -1624 -1607 -1653 -1485 -1662 -1661 -1631 -1632 -1633 -1575 -1576"/>
	</vehicle>
	<!--Vehicle with id randomCar_1716082808984688144 and type vehicle.dodge.charger_police_2020 depart at 18-->
	<vehicle id="randomCar_1716082808984688144" type="vehicle.dodge.charger_police_2020" depart="18">
		<route edges="-1494 -1498 -1499 -1500 -1501 -1487 -1488 -1489 -1495 -1456 -1626 -1663 -1664 -1665 -1666 -1521 -1504 -1505 -1583 -1593 -1624 -1522 -1667"/>
	</vehicle>
	<!--Vehicle with id randomCar_1716082808986442949 and type vehicle.dodge.charger_police_2020 depart at 18-->
	<vehicle id="randomCar_1716082808986442949" type="vehicle.dodge.charger_police_2020" depart="18">
		<route edges="-1662 -1661 -1631 -1427 -1493 -1489 -1502 -1498 -1499 -1500 -1491 -1490"/>
	</vehicle>
	<!--Vehicle with id randomCar_1716082808988879556 and type vehicle.dodge.charger_police_2020 depart at 18-->
	<vehicle id="randomCar_1716082808988879556" type="vehicle.dodge.charger_police_2020" depart="18">
		<route edges="-1527 -1622 -1636 -1645 -1646 -1536 -1604 -1538 -1518 -1552 -1587"/>
	</vehicle>
	<!--Vehicle with id randomCar_1716082808990346460 and type vehicle.dodge.charger_police_2020 depart at 18-->
	<vehicle id="randomCar_1716082808990346460" type="vehicle.dodge.charger_police_2020" depart="18">
		<route edges="-1452 -1574 -1661 -1631 -1427 -1493 -1489 -1495 -1456"/>
	</vehicle>
	<!--Vehicle with id randomCar_1716082808991415863 and type vehicle.dodge.charger_police_2020 depart at 19-->
	<vehicle id="randomCar_1716082808991415863" type="vehicle.dodge.charger_police_2020" depart="19">
		<route edges="-1647 -1648 -1649 -1535 -1474 -1473 -1467 -1529 -1614 -1615 -1511 -1512 -1504 -1505 -1583 -1593 -1624 -1607 -1653 -1485 -1662 -1661 -1631 -1427 -1493 -1489 -1495 -1456 -1626 -1663 -1559 -1558 -1563"/>
	</vehicle>
	<!--Vehicle with id randomCar_1716082809603962338 and type vehicle.dodge.charger_police_2020 depart at 19-->
	<vehicle id="randomCar_1716082809603962338" type="vehicle.dodge.charger_police_2020" depart="19">
		<route edges="-1404 -1471 -1467 -1529 -1614 -1615 -1511 -1512 -1504 -1505 -1583 -1593 -1624 -1522 -1523 -1600 -1599 -1637"/>
	</vehicle>
	<!--Vehicle with id randomCar_1716082809610120354 and type vehicle.dodge.charger_police_2020 depart at 19-->
	<vehicle id="randomCar_1716082809610120354" type="vehicle.dodge.charger_police_2020" depart="19">
		<route edges="-1576 -1633 -1634 -1466"/>
	</vehicle>
	<!--Vehicle with id randomCar_1716082809615420569 and type vehicle.dodge.charger_police_2020 depart at 19-->
	<vehicle id="randomCar_1716082809615420569" type="vehicle.dodge.charger_police_2020" depart="19">
		<route edges="-1502 -1498 -1499 -1500 -1501 -1487 -1488 -1489 -1495 -1456 -1626 -1414"/>
	</vehicle>
	<!--Vehicle with id randomCar_1716082809618218277 and type vehicle.dodge.charger_police_2020 depart at 19-->
	<vehicle id="randomCar_1716082809618218277" type="vehicle.dodge.charger_police_2020" depart="19">
		<route edges="-1585 -1462 -1461 -1477 -1483 -1655 -1656 -1657 -1610 -1635 -1609 -1613 -1552 -1587 -1619 -1647 -1542 -1435 -1434 -1595 -1596 -1597 -1577 -1627"/>
	</vehicle>
	<!--Vehicle with id randomCar_1716082809620030182 and type vehicle.dodge.charger_police_2020 depart at 19-->
	<vehicle id="randomCar_1716082809620030182" type="vehicle.dodge.charger_police_2020" depart="19">
		<route edges="-1518 -1552 -1587 -1619 -1647 -1542 -1435 -1434 -1595 -1596 -1597 -1577 -1627 -1564"/>
	</vehicle>
	<!--Vehicle with id randomCar_1716082809621516086 and type vehicle.dodge.charger_police_2020 depart at 19-->
	<vehicle id="randomCar_1716082809621516086" type="vehicle.dodge.charger_police_2020" depart="19">
		<route edges="-1537 -1594 -1588 -1589 -1539 -1649 -1535 -1474 -1473 -1467 -1529 -1614 -1615 -1511 -1512 -1504 -1505 -1583 -1593 -1624 -1607 -1653 -1485 -1662 -1661 -1631 -1427 -1493 -1489 -1502 -1498 -1496"/>
	</vehicle>
	<!--Vehicle with id randomCar_1716082809623329791 and type vehicle.dodge.charger_police_2020 depart at 19-->
	<vehicle id="randomCar_1716082809623329791" type="vehicle.dodge.charger_police_2020" depart="19">
		<route edges="-1513 -1510 -1511 -1512 -1504 -1505 -1583 -1584"/>
	</vehicle>
	<!--Vehicle with id randomCar_1716082809624321593 and type vehicle.dodge.charger_police_2020 depart at 19-->
	<vehicle id="randomCar_1716082809624321593" type="vehicle.dodge.charger_police_2020" depart="19">
		<route edges="-1490 -1487 -1488 -1489 -1495 -1456 -1626 -1663 -1664 -1665 -1666 -1521 -1504 -1505 -1583 -1584 -1513 -1525 -1616 -1617 -1636 -1645 -1646 -1536 -1604 -1538 -1433 -1606 -1455 -1540"/>
	</vehicle>
	<!--Vehicle with id randomCar_1716082809626250199 and type vehicle.dodge.charger_police_2020 depart at 19-->
	<vehicle id="randomCar_1716082809626250199" type="vehicle.dodge.charger_police_2020" depart="19">
		<route edges="-1583 -1593 -1624 -1607 -1653 -1485 -1662 -1661 -1631 -1427 -1493 -1489 -1495 -1456 -1626 -1414 -1547"/>
	</vehicle>
	<!--Vehicle with id randomCar_1716082809627644902 and type vehicle.dodge.charger_police_2020 depart at 19-->
	<vehicle id="randomCar_1716082809627644902" type="vehicle.dodge.charger_police_2020" depart="19">
		<route edges="-1588 -1589 -1539 -1649 -1535 -1474 -1473 -1467 -1529 -1614 -1615 -1511 -1512 -1504 -1505 -1583 -1593 -1624 -1522"/>
	</vehicle>
	<!--Vehicle with id randomCar_1716082809628678105 and type vehicle.dodge.charger_police_2020 depart at 19-->
	<vehicle id="randomCar_1716082809628678105" type="vehicle.dodge.charger_police_2020" depart="19">
		<route edges="-1530 -1571 -1572 -1581 -1622 -1529 -1614 -1615 -1511 -1512 -1504 -1505 -1583 -1593 -1624 -1607 -1653 -1485 -1662 -1661 -1631 -1427 -1493 -1489 -1502 -1498 -1499 -1500 -1501 -1487 -1488"/>
	</vehicle>
	<!--Vehicle with id randomCar_1716082809629504807 and type vehicle.dodge.charger_police_2020 depart at 20-->
	<vehicle id="randomCar_1716082809629504807" type="vehicle.dodge.charger_police_2020" depart="20">
		<route edges="-1521 -1504 -1505 -1583 -1593 -1624 -1607 -1653 -1654 -1655 -1656 -1657 -1658 -1508"/>
	</vehicle>
	<!--Vehicle with id randomCar_1716082810223496532 and type vehicle.dodge.charger_police_2020 depart at 20-->
	<vehicle id="randomCar_1716082810223496532" type="vehicle.dodge.charger_police_2020" depart="20">
		<route edges="-1666 -1521 -1504 -1505 -1583 -1593 -1624 -1607 -1653 -1485 -1662 -1661 -1631 -1427 -1493 -1489 -1495 -1456 -1626"/>
	</vehicle>
	<!--Vehicle with id randomCar_1716082810228158544 and type vehicle.dodge.charger_police_2020 depart at 20-->
	<vehicle id="randomCar_1716082810228158544" type="vehicle.dodge.charger_police_2020" depart="20">
		<route edges="-1571 -1572 -1581 -1622 -1636 -1645 -1531 -1596"/>
	</vehicle>
	<!--Vehicle with id randomCar_1716082810232508256 and type vehicle.dodge.charger_police_2020 depart at 20-->
	<vehicle id="randomCar_1716082810232508256" type="vehicle.dodge.charger_police_2020" depart="20">
		<route edges="-1599 -1637 -1635 -1556"/>
	</vehicle>
	<!--Vehicle with id randomCar_1716082810234952163 and type vehicle.dodge.charger_police_2020 depart at 20-->
	<vehicle id="randomCar_1716082810234952163" type="vehicle.dodge.charger_police_2020" depart="20">
		<route edges="-1455 -1540 -1578 -1619 -1647 -1648 -1649 -1535 -1474 -1473 -1467 -1529 -1614 -1615 -1511 -1512 -1504 -1505 -1583 -1593 -1624 -1607 -1653 -1654 -1655 -1656 -1657 -1610 -1635 -1609 -1419"/>
	</vehicle>
	<!--Vehicle with id randomCar_1716082810237788471 and type vehicle.dodge.charger_police_2020 depart at 20-->
	<vehicle id="randomCar_1716082810237788471" type="vehicle.dodge.charger_police_2020" depart="20">
		<route edges="-1525 -1616 -1617 -1529 -1614 -1615 -1511 -1512 -1504 -1505 -1583 -1593 -1624 -1607 -1653 -1485 -1662 -1661 -1631 -1427 -1493 -1489 -1502 -1498 -1499 -1500 -1501 -1487 -1488"/>
	</vehicle>
	<!--Vehicle with id randomCar_1716082810240674279 and type vehicle.dodge.charger_police_2020 depart at 20-->
	<vehicle id="randomCar_1716082810240674279" type="vehicle.dodge.charger_police_2020" depart="20">
		<route edges="-1512 -1504 -1569"/>
	</vehicle>
	<!--Vehicle with id randomCar_1716082810242633684 and type vehicle.dodge.charger_police_2020 depart at 20-->
	<vehicle id="randomCar_1716082810242633684" type="vehicle.dodge.charger_police_2020" depart="20">
		<route edges="-1511 -1512 -1504 -1505 -1583 -1593 -1624 -1607 -1653 -1485 -1662 -1661 -1631 -1427 -1493"/>
	</vehicle>
	<!--Vehicle with id randomCar_1716082810245077491 and type vehicle.dodge.charger_police_2020 depart at 20-->
	<vehicle id="randomCar_1716082810245077491" type="vehicle.dodge.charger_police_2020" depart="20">
		<route edges="-1568 -1602 -1583 -1593 -1624 -1522 -1667"/>
	</vehicle>
	<!--Vehicle with id randomCar_1716082810250526205 and type vehicle.dodge.charger_police_2020 depart at 20-->
	<vehicle id="randomCar_1716082810250526205" type="vehicle.dodge.charger_police_2020" depart="20">
		<route edges="-1603 -1604 -1538 -1518 -1552"/>
	</vehicle>
	<!--Vehicle with id randomCar_1716082810258572327 and type vehicle.dodge.charger_police_2020 depart at 20-->
	<vehicle id="randomCar_1716082810258572327" type="vehicle.dodge.charger_police_2020" depart="20">
		<route edges="-1532 -1404 -1471 -1467 -1529 -1614 -1615 -1511 -1512 -1504 -1505 -1583 -1593 -1624 -1522 -1523 -1600 -1599 -1637"/>
	</vehicle>
	<!--Vehicle with id randomCar_1716082810268940756 and type vehicle.dodge.charger_police_2020 depart at 20-->
	<vehicle id="randomCar_1716082810268940756" type="vehicle.dodge.charger_police_2020" depart="20">
		<route edges="-1554 -1651 -1522 -1523 -1600 -1599 -1637 -1635 -1609 -1613 -1552 -1587 -1619 -1647 -1648 -1649 -1535 -1474 -1473 -1467 -1529 -1614 -1615 -1511 -1512 -1504 -1505 -1583 -1593 -1624 -1607 -1653 -1485 -1662 -1661 -1631 -1427 -1493 -1489 -1495 -1456 -1626 -1414 -1547 -1548 -1544"/>
	</vehicle>
	<!--Vehicle with id randomCar_1716082810271357162 and type vehicle.dodge.charger_police_2020 depart at 20-->
	<vehicle id="randomCar_1716082810271357162" type="vehicle.dodge.charger_police_2020" depart="20">
		<route edges="-1591 -1461 -1477 -1483 -1655 -1656 -1657 -1610 -1635 -1609 -1613 -1552 -1587 -1619 -1647 -1648 -1649 -1535 -1474"/>
	</vehicle>
	<!--Vehicle with id randomCar_1716082810275912475 and type vehicle.dodge.charger_police_2020 depart at 20-->
	<vehicle id="randomCar_1716082810275912475" type="vehicle.dodge.charger_police_2020" depart="20">
		<route edges="-1566 -1424 -1497 -1500 -1501 -1487"/>
	</vehicle>
	<!--Vehicle with id randomCar_1716082810277714680 and type vehicle.dodge.charger_police_2020 depart at 20-->
	<vehicle id="randomCar_1716082810277714680" type="vehicle.dodge.charger_police_2020" depart="20">
		<route edges="-1625 -1494 -1498 -1499 -1500 -1501 -1487 -1488 -1489 -1495 -1456 -1626 -1414 -1547 -1548"/>
	</vehicle>
	<!--Vehicle with id randomCar_1716082810279502385 and type vehicle.dodge.charger_police_2020 depart at 20-->
	<vehicle id="randomCar_1716082810279502385" type="vehicle.dodge.charger_police_2020" depart="20">
		<route edges="-1439 -1408 -1589 -1539 -1649 -1535 -1474 -1473 -1467 -1529 -1614 -1615 -1511 -1512 -1504 -1505 -1583 -1593 -1624 -1607 -1653 -1485 -1662 -1661 -1631 -1427 -1585"/>
	</vehicle>
	<!--Vehicle with id randomCar_1716082810281758391 and type vehicle.dodge.charger_police_2020 depart at 20-->
	<vehicle id="randomCar_1716082810281758391" type="vehicle.dodge.charger_police_2020" depart="20">
		<route edges="-1649 -1535 -1474 -1473 -1467 -1529 -1614 -1615 -1511 -1512 -1504 -1505 -1583 -1593 -1624 -1607 -1653 -1485 -1662 -1661"/>
	</vehicle>
	<!--Vehicle with id randomCar_1716082810261416735 and type vehicle.dodge.charger_police_2020 depart at 21-->
	<vehicle id="randomCar_1716082810261416735" type="vehicle.dodge.charger_police_2020" depart="21">
		<route edges="-1588 -1541 -1594 -1595 -1596 -1597 -1577 -1627 -1564"/>
	</vehicle>
	<!--Vehicle with id randomCar_1716082810284952100 and type vehicle.dodge.charger_police_2020 depart at 21-->
	<vehicle id="randomCar_1716082810284952100" type="vehicle.dodge.charger_police_2020" depart="21">
		<route edges="-1607 -1653 -1654 -1655 -1656 -1657 -1658 -1508 -1509 -1612 -1513 -1525 -1616 -1617 -1529 -1614 -1615"/>
	</vehicle>
	<!--Vehicle with id randomCar_1716082810843323326 and type vehicle.dodge.charger_police_2020 depart at 21-->
	<vehicle id="randomCar_1716082810843323326" type="vehicle.dodge.charger_police_2020" depart="21">
		<route edges="-1471 -1467 -1529 -1614 -1615 -1511 -1512 -1504 -1505 -1583 -1593 -1624 -1607 -1653 -1485 -1662 -1661 -1631 -1427 -1493 -1489 -1495 -1456 -1626 -1663 -1559 -1558"/>
	</vehicle>
	<!--Vehicle with id randomCar_1716082810845969334 and type vehicle.dodge.charger_police_2020 depart at 21-->
	<vehicle id="randomCar_1716082810845969334" type="vehicle.dodge.charger_police_2020" depart="21">
		<route edges="-1629 -1533 -1581 -1622 -1636 -1645 -1646 -1536 -1604 -1605 -1647 -1542 -1435 -1434 -1507 -1394"/>
	</vehicle>
	<!--Vehicle with id randomCar_1716082810846853736 and type vehicle.dodge.charger_police_2020 depart at 21-->
	<vehicle id="randomCar_1716082810846853736" type="vehicle.dodge.charger_police_2020" depart="21">
		<route edges="-1425 -1546 -1549 -1550 -1663 -1664 -1665 -1666 -1521 -1504 -1505 -1583 -1593 -1624 -1607 -1653 -1485 -1662 -1661 -1461"/>
	</vehicle>
	<!--Vehicle with id randomCar_1716082810848857541 and type vehicle.dodge.charger_police_2020 depart at 21-->
	<vehicle id="randomCar_1716082810848857541" type="vehicle.dodge.charger_police_2020" depart="21">
		<route edges="-1601 -1629 -1533 -1581 -1622 -1529 -1614 -1615 -1511 -1512 -1504 -1505 -1583 -1593 -1624 -1607 -1653 -1485 -1483"/>
	</vehicle>
	<!--Vehicle with id randomCar_1716082810852183850 and type vehicle.dodge.charger_police_2020 depart at 21-->
	<vehicle id="randomCar_1716082810852183850" type="vehicle.dodge.charger_police_2020" depart="21">
		<route edges="-1465 -1464 -1462 -1461 -1477 -1483 -1655 -1656 -1657 -1610 -1635 -1609 -1613 -1552 -1587 -1619 -1647 -1542 -1435 -1434 -1595 -1596 -1597 -1577 -1627 -1628"/>
	</vehicle>
	<!--Vehicle with id randomCar_1716082810855087558 and type vehicle.dodge.charger_police_2020 depart at 21-->
	<vehicle id="randomCar_1716082810855087558" type="vehicle.dodge.charger_police_2020" depart="21">
		<route edges="-1509 -1612 -1513"/>
	</vehicle>
	<!--Vehicle with id randomCar_1716082810855890861 and type vehicle.dodge.charger_police_2020 depart at 21-->
	<vehicle id="randomCar_1716082810855890861" type="vehicle.dodge.charger_police_2020" depart="21">
		<route edges="-1467 -1529 -1614 -1615 -1511 -1512 -1504 -1505 -1583 -1593 -1624 -1607 -1653 -1485 -1662 -1661 -1631 -1427 -1493 -1489 -1495 -1456 -1626 -1663 -1559 -1558 -1563"/>
	</vehicle>
	<!--Vehicle with id randomCar_1716082810856704363 and type vehicle.dodge.charger_police_2020 depart at 21-->
	<vehicle id="randomCar_1716082810856704363" type="vehicle.dodge.charger_police_2020" depart="21">
		<route edges="-1634 -1466 -1465 -1464 -1462 -1461 -1477 -1483 -1655 -1656 -1657 -1658 -1508 -1509 -1612 -1513 -1525 -1616 -1617 -1530 -1571 -1572 -1573 -1641"/>
	</vehicle>
	<!--Vehicle with id randomCar_1716082810857752166 and type vehicle.dodge.charger_police_2020 depart at 21-->
	<vehicle id="randomCar_1716082810857752166" type="vehicle.dodge.charger_police_2020" depart="21">
		<route edges="-1654 -1655 -1656 -1657 -1658 -1652 -1653 -1485 -1662 -1661 -1631 -1427 -1493 -1489 -1495 -1456 -1626 -1663 -1664 -1562"/>
	</vehicle>
	<!--Vehicle with id randomCar_1716082810860156572 and type vehicle.dodge.charger_police_2020 depart at 21-->
	<vehicle id="randomCar_1716082810860156572" type="vehicle.dodge.charger_police_2020" depart="21">
		<route edges="-1461 -1477 -1483 -1655 -1656 -1657 -1610 -1635 -1609 -1613 -1552 -1587 -1619 -1647 -1542 -1435 -1434 -1439 -1408 -1589"/>
	</vehicle>
	<!--Vehicle with id randomCar_1716082810861471176 and type vehicle.dodge.charger_police_2020 depart at 21-->
	<vehicle id="randomCar_1716082810861471176" type="vehicle.dodge.charger_police_2020" depart="21">
		<route edges="-1445 -1600 -1599 -1637 -1635 -1609 -1613 -1552 -1587 -1619 -1647 -1648 -1649 -1535 -1474 -1473 -1643 -1532"/>
	</vehicle>
	<!--Vehicle with id randomCar_1716082810862627279 and type vehicle.dodge.charger_police_2020 depart at 21-->
	<vehicle id="randomCar_1716082810862627279" type="vehicle.dodge.charger_police_2020" depart="21">
		<route edges="-1541 -1594 -1588 -1589 -1539 -1649 -1535 -1474 -1473 -1643"/>
	</vehicle>
	<!--Vehicle with id randomCar_1716082810864364084 and type vehicle.dodge.charger_police_2020 depart at 21-->
	<vehicle id="randomCar_1716082810864364084" type="vehicle.dodge.charger_police_2020" depart="21">
		<route edges="-1434 -1439 -1408 -1589 -1539 -1649 -1535 -1474 -1473 -1467 -1529 -1614 -1615 -1511 -1512 -1504 -1505 -1583 -1593 -1624 -1607 -1653 -1654 -1655 -1656 -1657 -1610 -1635"/>
	</vehicle>
	<!--Vehicle with id randomCar_1716082810865755488 and type vehicle.dodge.charger_police_2020 depart at 21-->
	<vehicle id="randomCar_1716082810865755488" type="vehicle.dodge.charger_police_2020" depart="21">
		<route edges="-1557 -1568 -1602 -1583 -1584 -1513 -1525 -1616"/>
	</vehicle>
	<!--Vehicle with id randomCar_1716082810866732390 and type vehicle.dodge.charger_police_2020 depart at 21-->
	<vehicle id="randomCar_1716082810866732390" type="vehicle.dodge.charger_police_2020" depart="21">
		<route edges="-1596 -1391 -1471 -1467 -1529 -1614 -1615 -1511 -1524 -1521"/>
	</vehicle>
	<!--Vehicle with id randomCar_1716082810867875793 and type vehicle.dodge.charger_police_2020 depart at 21-->
	<vehicle id="randomCar_1716082810867875793" type="vehicle.dodge.charger_police_2020" depart="21">
		<route edges="-1524 -1521 -1504 -1505 -1583 -1593 -1624 -1607 -1653 -1485 -1662 -1661 -1631 -1632 -1633 -1634 -1466 -1465"/>
	</vehicle>
	<!--Vehicle with id randomCar_1716082810870096099 and type vehicle.dodge.charger_police_2020 depart at 21-->
	<vehicle id="randomCar_1716082810870096099" type="vehicle.dodge.charger_police_2020" depart="21">
		<route edges="-1651 -1522 -1523 -1600 -1599 -1637 -1635 -1609 -1613 -1552 -1587 -1619 -1647 -1648"/>
	</vehicle>
	<!--Vehicle with id randomCar_1716082810873018307 and type vehicle.dodge.charger_police_2020 depart at 21-->
	<vehicle id="randomCar_1716082810873018307" type="vehicle.dodge.charger_police_2020" depart="21">
		<route edges="-1522 -1523 -1600 -1599 -1637 -1635 -1609 -1613 -1552 -1587 -1619 -1647 -1542 -1435 -1434 -1595 -1596 -1597 -1598"/>
	</vehicle>
	<!--Vehicle with id randomCar_1716082810873939010 and type vehicle.dodge.charger_police_2020 depart at 21-->
	<vehicle id="randomCar_1716082810873939010" type="vehicle.dodge.charger_police_2020" depart="21">
		<route edges="-1508 -1509 -1612 -1513 -1510 -1511 -1512 -1504 -1505 -1583 -1593 -1624 -1607 -1653 -1485 -1662 -1661 -1631 -1427 -1493 -1489 -1502 -1498 -1499 -1500 -1501"/>
	</vehicle>
	<!--Vehicle with id randomCar_1716082810876149016 and type vehicle.dodge.charger_police_2020 depart at 21-->
	<vehicle id="randomCar_1716082810876149016" type="vehicle.dodge.charger_police_2020" depart="21">
		<route edges="-1476 -1421 -1607 -1653 -1485 -1662 -1661 -1631 -1427 -1493 -1489 -1502 -1498 -1496 -1566"/>
	</vehicle>
	<!--Vehicle with id randomCar_1716082810880765429 and type vehicle.dodge.charger_police_2020 depart at 21-->
	<vehicle id="randomCar_1716082810880765429" type="vehicle.dodge.charger_police_2020" depart="21">
		<route edges="-1586 -1432"/>
	</vehicle>
	<!--Vehicle with id randomCar_1716082810884408439 and type vehicle.dodge.charger_police_2020 depart at 21-->
	<vehicle id="randomCar_1716082810884408439" type="vehicle.dodge.charger_police_2020" depart="21">
		<route edges="-1527 -1622 -1529 -1614 -1615 -1511 -1512 -1504"/>
	</vehicle>
	<!--Vehicle with id randomCar_1716082810892489461 and type vehicle.dodge.charger_police_2020 depart at 21-->
	<vehicle id="randomCar_1716082810892489461" type="vehicle.dodge.charger_police_2020" depart="21">
		<route edges="-1540 -1578 -1619 -1647 -1648 -1649 -1535 -1474 -1473 -1467 -1529"/>
	</vehicle>
	<!--Vehicle with id randomCar_1716082810894293466 and type vehicle.dodge.charger_police_2020 depart at 21-->
	<vehicle id="randomCar_1716082810894293466" type="vehicle.dodge.charger_police_2020" depart="21">
		<route edges="-1638 -1597 -1598 -1486 -1472 -1471 -1467 -1529 -1614 -1615 -1511 -1524 -1521"/>
	</vehicle>
	<!--Vehicle with id randomCar_1716082810253110513 and type vehicle.dodge.charger_police_2020 depart at 22-->
	<vehicle id="randomCar_1716082810253110513" type="vehicle.dodge.charger_police_2020" depart="22">
		<route edges="-1537 -1594 -1588 -1589 -1539 -1649 -1535 -1474 -1473 -1467 -1529 -1614 -1615 -1511 -1512 -1504 -1505 -1583 -1593 -1624 -1607 -1653 -1485 -1662 -1661 -1631 -1427 -1493 -1489 -1495 -1456 -1626 -1663 -1664 -1562"/>
	</vehicle>
	<!--Vehicle with id randomCar_1716082810256034521 and type vehicle.dodge.charger_police_2020 depart at 22-->
	<vehicle id="randomCar_1716082810256034521" type="vehicle.dodge.charger_police_2020" depart="22">
		<route edges="-1583 -1593 -1624 -1607 -1653 -1485"/>
	</vehicle>
	<!--Vehicle with id randomCar_1716082810881545431 and type vehicle.dodge.charger_police_2020 depart at 22-->
	<vehicle id="randomCar_1716082810881545431" type="vehicle.dodge.charger_police_2020" depart="22">
		<route edges="-1607 -1653 -1485 -1662 -1661 -1631 -1632 -1633 -1634 -1466 -1465"/>
	</vehicle>
	<!--Vehicle with id randomCar_1716082811467086832 and type vehicle.dodge.charger_police_2020 depart at 22-->
	<vehicle id="randomCar_1716082811467086832" type="vehicle.dodge.charger_police_2020" depart="22">
		<route edges="-1417 -1553 -1555 -1613 -1552 -1587 -1619 -1647 -1648 -1649 -1535 -1474 -1473 -1467 -1529 -1614 -1615 -1511 -1512 -1504 -1505 -1583 -1593 -1624 -1607 -1653 -1485 -1662 -1661 -1631 -1427 -1493 -1489 -1502 -1498 -1499 -1500 -1501 -1487 -1492"/>
	</vehicle>
	<!--Vehicle with id randomCar_1716082811470048140 and type vehicle.dodge.charger_police_2020 depart at 22-->
	<vehicle id="randomCar_1716082811470048140" type="vehicle.dodge.charger_police_2020" depart="22">
		<route edges="-1447 -1587 -1619 -1647 -1648 -1649 -1535 -1474 -1473 -1467 -1529 -1614 -1615 -1511 -1512 -1504 -1505 -1583 -1593 -1624 -1607 -1653 -1485 -1662 -1661 -1631 -1632 -1633 -1575 -1592 -1437"/>
	</vehicle>
	<!--Vehicle with id randomCar_1716082811472418746 and type vehicle.dodge.charger_police_2020 depart at 22-->
	<vehicle id="randomCar_1716082811472418746" type="vehicle.dodge.charger_police_2020" depart="22">
		<route edges="-1424 -1497 -1500 -1501 -1487 -1488 -1489 -1495 -1456 -1626 -1663 -1664 -1665 -1666 -1521 -1504 -1505 -1583 -1593 -1624 -1607 -1653 -1654 -1655 -1656 -1657 -1610"/>
	</vehicle>
	<!--Vehicle with id randomCar_1716082811477705161 and type vehicle.dodge.charger_police_2020 depart at 22-->
	<vehicle id="randomCar_1716082811477705161" type="vehicle.dodge.charger_police_2020" depart="22">
		<route edges="-1490 -1487 -1488 -1489 -1495 -1456 -1626 -1663 -1664 -1665 -1666 -1521 -1504 -1505 -1583 -1584 -1513 -1525 -1616 -1617 -1530 -1571 -1572"/>
	</vehicle>
	<!--Vehicle with id randomCar_1716082811478824464 and type vehicle.dodge.charger_police_2020 depart at 22-->
	<vehicle id="randomCar_1716082811478824464" type="vehicle.dodge.charger_police_2020" depart="22">
		<route edges="-1394 -1588 -1589 -1539 -1649 -1603 -1604 -1605"/>
	</vehicle>
	<!--Vehicle with id randomCar_1716082811480098867 and type vehicle.dodge.charger_police_2020 depart at 22-->
	<vehicle id="randomCar_1716082811480098867" type="vehicle.dodge.charger_police_2020" depart="22">
		<route edges="-1615 -1511 -1512 -1504 -1505 -1583 -1593 -1624 -1607 -1653 -1654 -1655 -1656 -1657 -1610 -1635 -1556 -1444 -1445"/>
	</vehicle>
	<!--Vehicle with id randomCar_1716082811480855969 and type vehicle.dodge.charger_police_2020 depart at 22-->
	<vehicle id="randomCar_1716082811480855969" type="vehicle.dodge.charger_police_2020" depart="22">
		<route edges="-1642 -1629 -1533 -1581 -1622 -1529 -1614 -1615 -1511 -1512 -1504 -1505 -1583 -1593 -1624 -1607 -1653 -1654 -1655 -1656 -1657 -1610 -1635 -1556 -1444 -1445"/>
	</vehicle>
	<!--Vehicle with id randomCar_1716082811482441374 and type vehicle.dodge.charger_police_2020 depart at 22-->
	<vehicle id="randomCar_1716082811482441374" type="vehicle.dodge.charger_police_2020" depart="22">
		<route edges="-1618 -1600 -1599 -1637 -1635 -1609 -1613 -1552 -1587 -1619 -1647 -1648 -1649 -1535 -1474 -1473 -1467 -1529 -1614 -1615 -1511 -1512 -1504 -1505 -1583 -1593 -1624 -1607 -1653 -1485 -1662 -1661 -1631 -1427 -1493 -1489 -1495 -1456 -1626 -1414 -1547 -1425"/>
	</vehicle>
	<!--Vehicle with id randomCar_1716082811484060178 and type vehicle.dodge.charger_police_2020 depart at 22-->
	<vehicle id="randomCar_1716082811484060178" type="vehicle.dodge.charger_police_2020" depart="22">
		<route edges="-1427 -1493 -1489 -1495 -1456 -1626 -1663 -1664 -1665 -1666 -1521 -1504 -1569 -1452"/>
	</vehicle>
	<!--Vehicle with id randomCar_1716082811484886580 and type vehicle.dodge.charger_police_2020 depart at 22-->
	<vehicle id="randomCar_1716082811484886580" type="vehicle.dodge.charger_police_2020" depart="22">
		<route edges="-1623 -1657 -1658 -1652 -1653 -1485 -1662 -1661 -1631 -1427 -1493 -1489 -1502 -1498 -1496"/>
	</vehicle>
	<!--Vehicle with id randomCar_1716082811486069084 and type vehicle.dodge.charger_police_2020 depart at 22-->
	<vehicle id="randomCar_1716082811486069084" type="vehicle.dodge.charger_police_2020" depart="22">
		<route edges="-1624 -1607 -1653 -1654 -1655 -1656 -1657"/>
	</vehicle>
	<!--Vehicle with id randomCar_1716082811488234990 and type vehicle.dodge.charger_police_2020 depart at 22-->
	<vehicle id="randomCar_1716082811488234990" type="vehicle.dodge.charger_police_2020" depart="22">
		<route edges="-1581 -1622 -1529 -1614 -1615 -1511 -1512 -1504 -1505 -1583 -1593 -1624 -1607 -1653 -1485 -1662"/>
	</vehicle>
	<!--Vehicle with id randomCar_1716082811490058695 and type vehicle.dodge.charger_police_2020 depart at 22-->
	<vehicle id="randomCar_1716082811490058695" type="vehicle.dodge.charger_police_2020" depart="22">
		<route edges="-1486 -1472 -1471 -1467 -1529 -1614 -1615 -1511 -1512 -1504 -1505 -1583 -1593 -1624 -1607 -1653 -1485 -1662 -1661 -1631 -1427 -1493 -1489 -1502 -1498 -1496 -1566"/>
	</vehicle>
	<!--Vehicle with id randomCar_1716082811490572296 and type vehicle.dodge.charger_police_2020 depart at 22-->