<?xml version="1.0" encoding="utf-8"?>
<routes xmlns:xsi="http://www.w3.org/2001/XMLSchema-instance" xsi:noNamespaceSchemaLocation="http://sumo.dlr.de/xsd/routes_file.xsd">
	<!--Vehicle with id 0 and type vehicle.dodge.charger_police_2020 depart at 3-->
	<vehicle id="0" type="vehicle.dodge.charger_police_2020" depart="3">
		<route edges="-1466 -1465 -1464 -1427"/>
	</vehicle>
	<!--Vehicle with id randomCar_1716600129736341055 and type vehicle.dodge.charger_police_2020 depart at 224-->
	<vehicle id="randomCar_1716600129736341055" type="vehicle.dodge.charger_police_2020" depart="224">
		<route edges="-1649 -1535 -1474"/>
	</vehicle>
	<!--Vehicle with id randomCar_1716600130347421208 and type vehicle.dodge.charger_police_2020 depart at 225-->
	<vehicle id="randomCar_1716600130347421208" type="vehicle.dodge.charger_police_2020" depart="225">
		<route edges="-1647 -1542 -1435 -1434 -1595 -1596 -1597 -1598 -1630 -1533"/>
	</vehicle>
	<!--Vehicle with id randomCar_1716600130348565840 and type vehicle.dodge.charger_police_2020 depart at 225-->
	<vehicle id="randomCar_1716600130348565840" type="vehicle.dodge.charger_police_2020" depart="225">
		<route edges="-1410 -1409 -1545 -1567 -1548 -1544 -1665 -1666 -1521 -1504 -1505 -1583 -1593 -1624 -1522 -1523 -1600 -1599 -1637 -1635 -1609 -1419 -1417 -1553"/>
	</vehicle>
	<!--Vehicle with id randomCar_1716600130352584355 and type vehicle.dodge.charger_police_2020 depart at 225-->
	<vehicle id="randomCar_1716600130352584355" type="vehicle.dodge.charger_police_2020" depart="225">
		<route edges="-1610 -1635 -1556 -1637"/>
	</vehicle>
	<!--Vehicle with id randomCar_1716600130353596284 and type vehicle.dodge.charger_police_2020 depart at 225-->
	<vehicle id="randomCar_1716600130353596284" type="vehicle.dodge.charger_police_2020" depart="225">
		<route edges="-1583 -1593 -1624 -1522 -1523 -1600 -1599 -1637 -1635 -1609 -1613 -1552 -1606 -1455 -1540 -1578 -1518"/>
	</vehicle>
	<!--Vehicle with id randomCar_1716600130355081126 and type vehicle.dodge.charger_police_2020 depart at 225-->
	<vehicle id="randomCar_1716600130355081126" type="vehicle.dodge.charger_police_2020" depart="225">
		<route edges="-1408 -1434 -1595 -1596 -1391 -1471 -1467 -1529 -1614 -1615 -1511 -1512 -1504 -1505 -1583 -1593 -1624 -1522 -1523 -1600 -1599 -1637 -1635 -1556 -1444"/>
	</vehicle>
	<!--Vehicle with id randomCar_1716600130969888186 and type vehicle.dodge.charger_police_2020 depart at 226-->
	<vehicle id="randomCar_1716600130969888186" type="vehicle.dodge.charger_police_2020" depart="226">
		<route edges="-1593 -1624 -1612 -1513 -1525 -1616 -1617 -1636 -1643 -1638 -1597 -1598 -1630"/>
	</vehicle>
	<!--Vehicle with id randomCar_1716600131587386422 and type vehicle.dodge.charger_police_2020 depart at 227-->
	<vehicle id="randomCar_1716600131587386422" type="vehicle.dodge.charger_police_2020" depart="227">
		<route edges="-1584 -1513 -1510 -1511 -1512 -1504 -1505 -1583 -1593 -1624 -1522 -1523 -1600 -1599 -1637 -1635 -1609 -1613 -1552 -1606 -1455 -1540 -1578 -1619 -1647 -1542 -1516"/>
	</vehicle>
	<!--Vehicle with id randomCar_1716600131589697088 and type vehicle.dodge.charger_police_2020 depart at 227-->
	<vehicle id="randomCar_1716600131589697088" type="vehicle.dodge.charger_police_2020" depart="227">
		<route edges="-1656"/>
	</vehicle>
	<!--Vehicle with id randomCar_1716600131596360178 and type vehicle.dodge.charger_police_2020 depart at 227-->
	<vehicle id="randomCar_1716600131596360178" type="vehicle.dodge.charger_police_2020" depart="227">
		<route edges="-1551 -1490 -1487 -1492"/>
	</vehicle>
	<!--Vehicle with id randomCar_1716600131599970581 and type vehicle.dodge.charger_police_2020 depart at 227-->
	<vehicle id="randomCar_1716600131599970581" type="vehicle.dodge.charger_police_2020" depart="227">
		<route edges="-1638 -1597 -1598 -1486 -1472 -1471 -1467 -1529 -1614 -1615 -1511 -1512 -1504 -1505 -1583 -1593 -1624 -1522 -1523 -1600 -1599 -1637"/>
	</vehicle>
	<!--Vehicle with id randomCar_1716600132214681763 and type vehicle.dodge.charger_police_2020 depart at 228-->
	<vehicle id="randomCar_1716600132214681763" type="vehicle.dodge.charger_police_2020" depart="228">
		<route edges="-1637 -1635 -1609 -1613 -1552 -1606 -1455 -1540 -1578 -1619 -1647 -1542 -1435 -1434 -1595 -1596 -1597 -1577 -1627 -1628 -1515 -1432"/>
	</vehicle>
	<!--Vehicle with id randomCar_1716600132219507318 and type vehicle.dodge.charger_police_2020 depart at 228-->
	<vehicle id="randomCar_1716600132219507318" type="vehicle.dodge.charger_police_2020" depart="228">
		<route edges="-1513 -1510 -1511 -1512 -1504 -1505 -1583 -1593 -1624 -1522 -1523 -1600 -1599 -1637 -1635 -1609 -1613 -1552 -1606 -1455 -1540 -1578 -1619 -1647 -1542 -1516"/>
	</vehicle>
	<!--Vehicle with id randomCar_1716600132224299572 and type vehicle.dodge.charger_police_2020 depart at 228-->
	<vehicle id="randomCar_1716600132224299572" type="vehicle.dodge.charger_police_2020" depart="228">
		<route edges="-1613 -1552 -1606 -1455 -1540 -1578 -1619 -1647 -1542 -1435 -1541"/>
	</vehicle>
	<!--Vehicle with id randomCar_1716600132229678934 and type vehicle.dodge.charger_police_2020 depart at 228-->
	<vehicle id="randomCar_1716600132229678934" type="vehicle.dodge.charger_police_2020" depart="228">
		<route edges="-1642 -1629 -1533 -1581 -1622 -1529 -1614 -1615 -1511 -1512 -1504 -1505 -1583 -1593 -1624 -1522 -1523"/>
	</vehicle>
	<!--Vehicle with id randomCar_1716600130975267639 and type vehicle.dodge.charger_police_2020 depart at 229-->
	<vehicle id="randomCar_1716600130975267639" type="vehicle.dodge.charger_police_2020" depart="229">
		<route edges="-1434 -1439 -1408 -1589 -1539 -1649 -1603 -1604 -1538 -1518 -1552 -1606 -1455 -1540 -1579"/>
	</vehicle>
	<!--Vehicle with id randomCar_1716600132830640886 and type vehicle.dodge.charger_police_2020 depart at 229-->
	<vehicle id="randomCar_1716600132830640886" type="vehicle.dodge.charger_police_2020" depart="229">
		<route edges="-1563 -1561 -1666 -1521 -1504 -1505 -1583 -1584 -1513 -1525 -1616 -1617 -1636 -1643 -1532 -1404 -1471"/>
	</vehicle>
	<!--Vehicle with id randomCar_1716600132833352317 and type vehicle.dodge.charger_police_2020 depart at 229-->
	<vehicle id="randomCar_1716600132833352317" type="vehicle.dodge.charger_police_2020" depart="229">
		<route edges="-1561 -1666 -1521 -1504 -1505 -1583 -1593 -1624 -1522 -1523 -1600 -1599 -1637 -1635 -1609 -1613 -1552 -1606 -1455 -1540 -1578 -1619 -1647 -1648 -1649"/>
	</vehicle>
	<!--Vehicle with id randomCar_1716600132838132672 and type vehicle.dodge.charger_police_2020 depart at 229-->
	<vehicle id="randomCar_1716600132838132672" type="vehicle.dodge.charger_police_2020" depart="229">
		<route edges="-1472 -1638 -1597 -1598 -1630 -1533"/>
	</vehicle>
	<!--Vehicle with id randomCar_1716600132841264308 and type vehicle.dodge.charger_police_2020 depart at 229-->
	<vehicle id="randomCar_1716600132841264308" type="vehicle.dodge.charger_police_2020" depart="229">
		<route edges="-1505 -1583 -1584 -1513 -1525 -1616 -1617 -1636 -1643 -1638 -1597 -1598 -1486 -1472"/>
	</vehicle>
	<!--Vehicle with id randomCar_1716600132843232730 and type vehicle.dodge.charger_police_2020 depart at 229-->
	<vehicle id="randomCar_1716600132843232730" type="vehicle.dodge.charger_police_2020" depart="229">
		<route edges="-1419 -1417 -1553 -1555 -1613 -1552 -1606 -1455 -1540 -1578 -1619 -1647 -1542 -1435 -1434 -1595 -1596 -1597 -1577 -1627 -1628 -1515 -1432"/>
	</vehicle>
	<!--Vehicle with id randomCar_1716600132846156563 and type vehicle.dodge.charger_police_2020 depart at 229-->
	<vehicle id="randomCar_1716600132846156563" type="vehicle.dodge.charger_police_2020" depart="229">
		<route edges="-1522 -1523 -1600 -1599 -1637 -1635 -1609 -1613 -1552 -1606 -1455 -1540 -1579 -1517 -1537"/>
	</vehicle>
	<!--Vehicle with id randomCar_1716600132847209475 and type vehicle.dodge.charger_police_2020 depart at 229-->
	<vehicle id="randomCar_1716600132847209475" type="vehicle.dodge.charger_police_2020" depart="229">
		<route edges="-1610 -1635 -1609 -1613 -1552 -1606 -1455 -1540 -1578 -1619 -1647 -1542 -1435 -1434 -1439 -1408 -1589"/>
	</vehicle>
	<!--Vehicle with id randomCar_1716600132849158698 and type vehicle.dodge.charger_police_2020 depart at 229-->
	<vehicle id="randomCar_1716600132849158698" type="vehicle.dodge.charger_police_2020" depart="229">
		<route edges="-1622 -1636 -1643 -1638 -1597 -1598 -1601 -1629"/>
	</vehicle>
	<!--Vehicle with id randomCar_1716600132850758316 and type vehicle.dodge.charger_police_2020 depart at 229-->
	<vehicle id="randomCar_1716600132850758316" type="vehicle.dodge.charger_police_2020" depart="229">
		<route edges="-1497"/>
	</vehicle>
	<!--Vehicle with id randomCar_1716600132855869874 and type vehicle.dodge.charger_police_2020 depart at 229-->
	<vehicle id="randomCar_1716600132855869874" type="vehicle.dodge.charger_police_2020" depart="229">
		<route edges="-1533 -1581 -1622 -1636 -1643 -1638 -1597 -1577 -1627"/>
	</vehicle>
	<!--Vehicle with id randomCar_1716600133451446165 and type vehicle.dodge.charger_police_2020 depart at 230-->
	<vehicle id="randomCar_1716600133451446165" type="vehicle.dodge.charger_police_2020" depart="230">
		<route edges="-1507 -1394 -1588 -1589"/>
	</vehicle>
	<!--Vehicle with id randomCar_1716600133452053072 and type vehicle.dodge.charger_police_2020 depart at 230-->
	<vehicle id="randomCar_1716600133452053072" type="vehicle.dodge.charger_police_2020" depart="230">
		<route edges="-1665 -1666 -1521 -1504 -1505 -1583 -1593 -1624 -1522 -1523 -1600 -1599 -1637 -1635 -1609 -1419 -1417"/>
	</vehicle>
	<!--Vehicle with id randomCar_1716600133453062984 and type vehicle.dodge.charger_police_2020 depart at 230-->
	<vehicle id="randomCar_1716600133453062984" type="vehicle.dodge.charger_police_2020" depart="230">
		<route edges="-1487 -1488 -1489 -1502 -1498 -1496 -1566"/>
	</vehicle>
	<!--Vehicle with id randomCar_1716600133454802704 and type vehicle.dodge.charger_police_2020 depart at 230-->
	<vehicle id="randomCar_1716600133454802704" type="vehicle.dodge.charger_police_2020" depart="230">
		<route edges="-1601 -1629 -1533 -1581 -1622 -1529 -1614 -1615 -1511 -1512 -1504 -1505 -1583 -1593 -1624 -1522 -1523 -1600 -1599 -1637 -1635 -1609 -1613 -1552 -1606 -1455 -1540 -1578 -1619 -1647 -1542 -1435 -1434"/>
	</vehicle>
	<!--Vehicle with id randomCar_1716600133456724426 and type vehicle.dodge.charger_police_2020 depart at 230-->
	<vehicle id="randomCar_1716600133456724426" type="vehicle.dodge.charger_police_2020" depart="230">
		<route edges="-1506 -1628 -1642 -1629 -1533 -1581 -1622 -1529 -1614 -1615 -1511 -1512 -1504 -1505 -1583 -1593 -1624 -1522 -1523 -1600 -1599 -1637 -1635 -1609 -1419 -1417"/>
	</vehicle>
	<!--Vehicle with id randomCar_1716600133457329332 and type vehicle.dodge.charger_police_2020 depart at 230-->
	<vehicle id="randomCar_1716600133457329332" type="vehicle.dodge.charger_police_2020" depart="230">
		<route edges="-1577 -1627 -1628 -1642 -1629 -1533 -1581 -1622 -1529 -1614 -1615 -1511 -1512 -1504 -1505 -1583 -1593 -1624 -1522 -1523 -1600 -1554"/>
	</vehicle>
	<!--Vehicle with id randomCar_1716600133459893662 and type vehicle.dodge.charger_police_2020 depart at 230-->
	<vehicle id="randomCar_1716600133459893662" type="vehicle.dodge.charger_police_2020" depart="230">
		<route edges="-1584 -1513 -1510 -1511 -1512 -1504 -1505 -1583 -1593 -1624 -1522 -1523 -1600 -1599 -1637 -1635 -1609 -1419 -1618"/>
	</vehicle>
	<!--Vehicle with id randomCar_1716600133469901176 and type vehicle.dodge.charger_police_2020 depart at 230-->
	<vehicle id="randomCar_1716600133469901176" type="vehicle.dodge.charger_police_2020" depart="230">
		<route edges="-1560 -1561 -1666 -1521 -1504 -1505 -1583 -1584 -1513 -1510 -1511 -1512"/>
	</vehicle>
	<!--Vehicle with id randomCar_1716600133471694196 and type vehicle.dodge.charger_police_2020 depart at 230-->
	<vehicle id="randomCar_1716600133471694196" type="vehicle.dodge.charger_police_2020" depart="230">
		<route edges="-1550 -1663 -1664 -1665 -1666 -1521 -1504 -1505 -1583 -1584 -1513 -1525 -1616 -1617 -1636 -1643 -1638 -1597 -1577 -1627"/>
	</vehicle>
	<!--Vehicle with id randomCar_1716600133472894610 and type vehicle.dodge.charger_police_2020 depart at 230-->
	<vehicle id="randomCar_1716600133472894610" type="vehicle.dodge.charger_police_2020" depart="230">
		<route edges="-1492 -1493 -1489 -1495"/>
	</vehicle>
	<!--Vehicle with id randomCar_1716600133473988522 and type vehicle.dodge.charger_police_2020 depart at 230-->
	<vehicle id="randomCar_1716600133473988522" type="vehicle.dodge.charger_police_2020" depart="230">
		<route edges="-1595 -1596 -1391 -1471 -1467 -1529 -1614 -1615 -1511 -1512 -1504 -1505 -1583 -1593 -1624 -1522 -1523 -1600 -1599 -1637 -1635 -1556"/>
	</vehicle>
	<!--Vehicle with id randomCar_1716600133480149793 and type vehicle.dodge.charger_police_2020 depart at 230-->
	<vehicle id="randomCar_1716600133480149793" type="vehicle.dodge.charger_police_2020" depart="230">
		<route edges="-1583 -1584 -1513 -1525 -1616 -1617 -1636 -1643 -1638 -1597 -1598 -1486"/>
	</vehicle>
	<!--Vehicle with id randomCar_1716600133481887912 and type vehicle.dodge.charger_police_2020 depart at 230-->
	<vehicle id="randomCar_1716600133481887912" type="vehicle.dodge.charger_police_2020" depart="230">
		<route edges="-1667 -1482 -1523 -1600 -1599 -1637 -1635 -1609 -1613 -1552 -1606 -1455 -1540 -1578"/>
	</vehicle>
	<!--Vehicle with id randomCar_1716600133459146553 and type vehicle.dodge.charger_police_2020 depart at 231-->
	<vehicle id="randomCar_1716600133459146553" type="vehicle.dodge.charger_police_2020" depart="231">
		<route edges="-1613 -1552 -1606 -1455 -1540 -1578 -1619 -1647 -1542 -1435 -1434 -1595 -1596 -1597 -1577 -1627 -1628"/>
	</vehicle>
	<!--Vehicle with id randomCar_1716600134068245499 and type vehicle.dodge.charger_police_2020 depart at 231-->
	<vehicle id="randomCar_1716600134068245499" type="vehicle.dodge.charger_police_2020" depart="231">
		<route edges="-1410 -1409 -1545 -1567 -1548 -1544 -1665 -1666 -1521 -1504 -1505 -1583 -1584 -1513 -1525 -1616 -1617 -1636 -1643 -1532 -1404 -1471"/>
	</vehicle>
	<!--Vehicle with id randomCar_1716600134071637837 and type vehicle.dodge.charger_police_2020 depart at 231-->
	<vehicle id="randomCar_1716600134071637837" type="vehicle.dodge.charger_police_2020" depart="231">
		<route edges="-1537 -1594 -1595 -1596 -1391 -1471 -1467 -1529 -1614 -1615 -1511 -1512 -1504 -1505 -1583 -1593 -1624 -1557 -1574 -1477 -1483"/>
	</vehicle>
	<!--Vehicle with id randomCar_1716600134075991087 and type vehicle.dodge.charger_police_2020 depart at 231-->
	<vehicle id="randomCar_1716600134075991087" type="vehicle.dodge.charger_police_2020" depart="231">
		<route edges="-1531 -1596 -1391 -1471 -1467 -1529 -1614 -1615 -1511 -1512 -1504 -1505 -1583 -1593 -1624 -1522 -1523 -1600 -1599 -1637 -1635 -1609 -1613 -1552 -1606 -1455 -1540 -1578 -1619 -1647 -1648 -1649 -1603 -1604 -1538"/>
	</vehicle>
	<!--Vehicle with id randomCar_1716600134083158369 and type vehicle.dodge.charger_police_2020 depart at 231-->
	<vehicle id="randomCar_1716600134083158369" type="vehicle.dodge.charger_police_2020" depart="231">
		<route edges="-1455 -1540 -1578 -1619 -1647 -1542 -1435 -1434 -1595 -1596 -1391 -1471 -1467 -1529 -1614 -1615 -1511 -1512 -1504 -1505 -1583 -1584 -1513 -1510"/>
	</vehicle>
	<!--Vehicle with id randomCar_1716600134084492884 and type vehicle.dodge.charger_police_2020 depart at 231-->
	<vehicle id="randomCar_1716600134084492884" type="vehicle.dodge.charger_police_2020" depart="231">
		<route edges="-1627 -1628 -1642 -1629 -1533 -1581 -1622 -1529 -1614 -1615 -1511 -1512 -1504 -1505 -1583"/>
	</vehicle>
	<!--Vehicle with id randomCar_1716600134086370705 and type vehicle.dodge.charger_police_2020 depart at 231-->
	<vehicle id="randomCar_1716600134086370705" type="vehicle.dodge.charger_police_2020" depart="231">
		<route edges="-1523 -1600 -1599 -1637 -1635 -1609 -1613 -1552 -1606 -1455 -1540 -1578"/>
	</vehicle>
	<!--Vehicle with id randomCar_1716600134087133014 and type vehicle.dodge.charger_police_2020 depart at 231-->
	<vehicle id="randomCar_1716600134087133014" type="vehicle.dodge.charger_police_2020" depart="231">
		<route edges="-1624 -1612 -1513 -1525 -1616 -1617 -1529 -1614"/>
	</vehicle>
	<!--Vehicle with id randomCar_1716600134088074525 and type vehicle.dodge.charger_police_2020 depart at 231-->
	<vehicle id="randomCar_1716600134088074525" type="vehicle.dodge.charger_police_2020" depart="231">
		<route edges="-1508 -1509 -1522 -1523 -1600 -1599 -1637 -1635 -1609 -1613 -1552 -1606 -1455 -1540 -1578 -1619 -1647 -1542 -1435 -1434 -1595 -1596"/>
	</vehicle>
	<!--Vehicle with id randomCar_1716600134090304350 and type vehicle.dodge.charger_police_2020 depart at 231-->
	<vehicle id="randomCar_1716600134090304350" type="vehicle.dodge.charger_police_2020" depart="231">
		<route edges="-1486 -1472 -1471 -1467 -1529 -1614 -1615 -1511 -1512 -1504 -1505 -1583 -1584 -1513"/>
	</vehicle>
	<!--Vehicle with id randomCar_1716600134091206560 and type vehicle.dodge.charger_police_2020 depart at 231-->
	<vehicle id="randomCar_1716600134091206560" type="vehicle.dodge.charger_police_2020" depart="231">
		<route edges="-1622 -1529 -1614 -1615 -1511 -1512 -1504 -1505 -1583 -1593 -1624 -1522 -1523 -1600 -1599 -1637 -1635 -1609 -1613 -1552 -1606 -1455 -1540 -1579 -1517 -1537 -1594"/>
	</vehicle>
	<!--Vehicle with id randomCar_1716600134092004369 and type vehicle.dodge.charger_police_2020 depart at 231-->
	<vehicle id="randomCar_1716600134092004369" type="vehicle.dodge.charger_police_2020" depart="231">
		<route edges="-1511 -1512 -1504 -1505 -1583 -1584 -1513 -1525 -1616 -1617"/>
	</vehicle>
	<!--Vehicle with id randomCar_1716600134093239584 and type vehicle.dodge.charger_police_2020 depart at 231-->
	<vehicle id="randomCar_1716600134093239584" type="vehicle.dodge.charger_police_2020" depart="231">
		<route edges="-1589 -1539 -1649 -1603 -1604 -1605 -1647 -1542 -1435 -1434 -1595 -1596 -1391 -1471 -1467 -1529 -1614 -1615 -1511 -1512 -1504 -1505 -1583 -1593 -1624 -1612"/>
	</vehicle>
	<!--Vehicle with id randomCar_1716600131602639857 and type vehicle.dodge.charger_police_2020 depart at 232-->
	<vehicle id="randomCar_1716600131602639857" type="vehicle.dodge.charger_police_2020" depart="232">
		<route edges="-1434 -1439 -1408 -1589 -1539 -1649 -1603 -1604 -1538 -1433"/>
	</vehicle>
	<!--Vehicle with id randomCar_1716600133463245500 and type vehicle.dodge.charger_police_2020 depart at 232-->
	<vehicle id="randomCar_1716600133463245500" type="vehicle.dodge.charger_police_2020" depart="232">
		<route edges="-1505 -1583 -1584 -1513 -1525 -1616 -1617 -1636 -1643 -1644"/>
	</vehicle>
	<!--Vehicle with id randomCar_1716600133466508337 and type vehicle.dodge.charger_police_2020 depart at 232-->
	<vehicle id="randomCar_1716600133466508337" type="vehicle.dodge.charger_police_2020" depart="232">
		<route edges="-1409 -1545 -1567 -1548 -1544 -1665 -1666 -1521 -1504 -1505 -1583 -1593 -1624 -1522 -1523 -1600 -1599 -1637 -1635 -1609 -1613 -1552 -1606 -1455 -1540 -1578 -1619 -1647 -1648 -1649 -1603 -1604"/>
	</vehicle>
	<!--Vehicle with id randomCar_1716600133468032654 and type vehicle.dodge.charger_police_2020 depart at 232-->
	<vehicle id="randomCar_1716600133468032654" type="vehicle.dodge.charger_police_2020" depart="232">
		<route edges="-1435 -1434 -1595 -1596 -1391 -1471 -1467 -1529 -1614 -1615 -1511 -1512 -1504 -1505 -1583 -1584 -1513 -1525 -1616"/>
	</vehicle>
	<!--Vehicle with id randomCar_1716600134708990105 and type vehicle.dodge.charger_police_2020 depart at 232-->
	<vehicle id="randomCar_1716600134708990105" type="vehicle.dodge.charger_police_2020" depart="232">
		<route edges="-1600 -1599 -1637 -1635 -1609 -1613 -1552 -1606 -1455 -1540 -1578 -1619 -1647 -1542 -1435 -1434 -1595 -1596 -1391 -1471 -1467 -1530 -1528"/>
	</vehicle>
	<!--Vehicle with id randomCar_1716600134723717173 and type vehicle.dodge.charger_police_2020 depart at 232-->
	<vehicle id="randomCar_1716600134723717173" type="vehicle.dodge.charger_police_2020" depart="232">
		<route edges="-1549 -1550 -1663 -1664 -1665 -1666 -1521 -1504 -1505 -1583 -1584 -1513 -1525 -1616 -1617 -1636 -1643 -1644 -1534"/>
	</vehicle>
	<!--Vehicle with id randomCar_1716600134733350083 and type vehicle.dodge.charger_police_2020 depart at 232-->
	<vehicle id="randomCar_1716600134733350083" type="vehicle.dodge.charger_police_2020" depart="232">
		<route edges="-1529 -1614 -1615 -1511 -1512 -1504 -1569 -1602"/>
	</vehicle>
	<!--Vehicle with id randomCar_1716600134738499541 and type vehicle.dodge.charger_police_2020 depart at 232-->
	<vehicle id="randomCar_1716600134738499541" type="vehicle.dodge.charger_police_2020" depart="232">
		<route edges="-1547 -1548 -1544 -1665 -1666 -1521 -1504 -1505 -1583 -1584 -1513 -1525 -1616 -1617 -1530 -1528 -1526"/>
	</vehicle>
	<!--Vehicle with id randomCar_1716600134741963581 and type vehicle.dodge.charger_police_2020 depart at 232-->
	<vehicle id="randomCar_1716600134741963581" type="vehicle.dodge.charger_police_2020" depart="232">
		<route edges="-1638 -1597 -1598 -1486"/>
	</vehicle>
	<!--Vehicle with id randomCar_1716600134742864891 and type vehicle.dodge.charger_police_2020 depart at 232-->
	<vehicle id="randomCar_1716600134742864891" type="vehicle.dodge.charger_police_2020" depart="232">
		<route edges="-1622 -1636 -1643 -1638 -1597 -1577 -1627 -1564"/>
	</vehicle>
	<!--Vehicle with id randomCar_1716600134744741312 and type vehicle.dodge.charger_police_2020 depart at 232-->
	<vehicle id="randomCar_1716600134744741312" type="vehicle.dodge.charger_police_2020" depart="232">
		<route edges="-1642 -1629 -1533 -1581 -1622 -1529 -1614 -1615 -1511 -1512 -1504 -1505 -1583 -1593 -1624 -1522 -1523 -1600 -1599 -1637 -1635 -1609 -1613 -1552 -1606 -1455 -1540 -1578 -1518"/>
	</vehicle>
	<!--Vehicle with id randomCar_1716600134746010027 and type vehicle.dodge.charger_police_2020 depart at 232-->
	<vehicle id="randomCar_1716600134746010027" type="vehicle.dodge.charger_police_2020" depart="232">
		<route edges="-1541 -1594 -1595 -1596 -1391 -1471 -1467 -1529 -1614 -1615 -1511 -1512"/>
	</vehicle>
	<!--Vehicle with id randomCar_1716600134748930160 and type vehicle.dodge.charger_police_2020 depart at 232-->
	<vehicle id="randomCar_1716600134748930160" type="vehicle.dodge.charger_police_2020" depart="232">
		<route edges="-1663 -1664 -1665 -1666 -1521 -1504 -1505 -1583 -1593 -1624 -1557 -1574"/>
	</vehicle>
	<!--Vehicle with id randomCar_1716600134751021184 and type vehicle.dodge.charger_police_2020 depart at 232-->
	<vehicle id="randomCar_1716600134751021184" type="vehicle.dodge.charger_police_2020" depart="232">
		<route edges="-1603 -1604 -1605 -1647 -1542 -1435 -1434 -1595 -1596 -1597 -1577 -1627 -1628"/>
	</vehicle>
	<!--Vehicle with id randomCar_1716600134751900394 and type vehicle.dodge.charger_police_2020 depart at 232-->
	<vehicle id="randomCar_1716600134751900394" type="vehicle.dodge.charger_police_2020" depart="232">
		<route edges="-1527 -1622 -1529 -1614 -1615 -1511 -1512 -1504 -1505 -1583 -1593 -1624 -1522 -1523 -1600 -1599 -1637 -1635 -1609 -1613 -1552 -1606 -1455 -1540"/>
	</vehicle>
	<!--Vehicle with id randomCar_1716600134755299133 and type vehicle.dodge.charger_police_2020 depart at 232-->
	<vehicle id="randomCar_1716600134755299133" type="vehicle.dodge.charger_police_2020" depart="232">
		<route edges="-1540 -1579 -1517 -1537 -1594"/>
	</vehicle>
	<!--Vehicle with id randomCar_1716600134757330656 and type vehicle.dodge.charger_police_2020 depart at 232-->
	<vehicle id="randomCar_1716600134757330656" type="vehicle.dodge.charger_police_2020" depart="232">
		<route edges="-1651 -1522 -1523 -1600 -1599 -1637 -1635 -1556"/>
	</vehicle>
	<!--Vehicle with id randomCar_1716600134089306539 and type vehicle.dodge.charger_police_2020 depart at 233-->
	<vehicle id="randomCar_1716600134089306539" type="vehicle.dodge.charger_police_2020" depart="233">
		<route edges="-1577 -1627 -1628 -1642 -1629 -1533 -1581 -1622 -1529 -1614 -1615 -1511 -1512 -1504 -1505 -1583 -1593 -1624 -1522 -1523 -1600 -1599 -1637 -1635 -1609 -1613 -1552 -1587"/>
	</vehicle>
	<!--Vehicle with id randomCar_1716600134094948403 and type vehicle.dodge.charger_police_2020 depart at 233-->
	<vehicle id="randomCar_1716600134094948403" type="vehicle.dodge.charger_police_2020" depart="233">
		<route edges="-1506 -1628 -1642 -1629 -1533 -1581 -1622 -1529 -1614 -1615 -1511 -1512 -1504 -1505 -1583 -1593"/>
	</vehicle>
	<!--Vehicle with id randomCar_1716600134702069726 and type vehicle.dodge.charger_police_2020 depart at 233-->
	<vehicle id="randomCar_1716600134702069726" type="vehicle.dodge.charger_police_2020" depart="233">
		<route edges="-1511 -1512 -1504 -1505 -1583 -1593 -1624 -1522 -1523 -1600 -1599 -1637 -1635 -1609 -1613 -1552 -1606 -1455 -1540 -1578 -1619 -1647 -1542 -1435 -1434 -1507 -1394"/>
	</vehicle>
	<!--Vehicle with id randomCar_1716600134735398106 and type vehicle.dodge.charger_police_2020 depart at 233-->
	<vehicle id="randomCar_1716600134735398106" type="vehicle.dodge.charger_police_2020" depart="233">
		<route edges="-1667 -1482 -1523 -1600 -1599 -1637 -1635 -1609 -1613 -1552 -1606 -1455 -1540 -1578 -1619 -1647 -1542 -1435 -1434 -1595 -1596 -1597 -1577 -1627 -1628"/>
	</vehicle>
	<!--Vehicle with id randomCar_1716600135307219226 and type vehicle.dodge.charger_police_2020 depart at 233-->
	<vehicle id="randomCar_1716600135307219226" type="vehicle.dodge.charger_police_2020" depart="233">
		<route edges="-1597 -1598 -1486 -1472 -1471 -1467 -1529 -1614 -1615 -1511 -1512 -1504 -1505 -1583 -1593 -1624 -1522 -1523 -1600 -1599"/>
	</vehicle>
	<!--Vehicle with id randomCar_1716600135309478752 and type vehicle.dodge.charger_police_2020 depart at 233-->
	<vehicle id="randomCar_1716600135309478752" type="vehicle.dodge.charger_police_2020" depart="233">
		<route edges="-1558 -1563 -1561 -1666 -1521 -1504 -1505 -1583"/>
	</vehicle>
	<!--Vehicle with id randomCar_1716600135312620088 and type vehicle.dodge.charger_police_2020 depart at 233-->
	<vehicle id="randomCar_1716600135312620088" type="vehicle.dodge.charger_police_2020" depart="233">
		<route edges="-1614 -1615 -1511 -1512 -1504 -1505 -1583 -1584 -1513 -1525 -1616 -1617 -1636 -1643 -1644"/>
	</vehicle>
	<!--Vehicle with id randomCar_1716600135324916028 and type vehicle.dodge.charger_police_2020 depart at 233-->
	<vehicle id="randomCar_1716600135324916028" type="vehicle.dodge.charger_police_2020" depart="233">
		<route edges="-1606 -1455 -1540 -1578 -1619 -1647 -1542 -1435 -1434 -1595 -1596 -1391"/>
	</vehicle>
	<!--Vehicle with id randomCar_1716600135327711660 and type vehicle.dodge.charger_police_2020 depart at 233-->
	<vehicle id="randomCar_1716600135327711660" type="vehicle.dodge.charger_police_2020" depart="233">
		<route edges="-1559 -1558 -1563 -1561 -1666 -1521 -1504 -1505 -1583 -1584 -1513 -1525 -1616 -1617 -1636 -1643 -1638 -1597 -1598 -1601"/>
	</vehicle>
	<!--Vehicle with id randomCar_1716600135338162779 and type vehicle.dodge.charger_police_2020 depart at 233-->
	<vehicle id="randomCar_1716600135338162779" type="vehicle.dodge.charger_police_2020" depart="233">
		<route edges="-1664 -1665 -1666 -1521 -1504 -1505 -1583 -1584 -1513"/>
	</vehicle>
	<!--Vehicle with id randomCar_1716600135346218071 and type vehicle.dodge.charger_police_2020 depart at 233-->
	<vehicle id="randomCar_1716600135346218071" type="vehicle.dodge.charger_police_2020" depart="233">
		<route edges="-1581 -1622 -1529 -1614 -1615 -1511 -1512 -1504 -1505 -1583 -1593 -1624 -1522 -1523 -1600 -1599 -1637 -1635 -1609 -1613 -1552 -1606 -1455 -1540 -1578 -1619 -1647 -1542 -1435"/>
	</vehicle>
	<!--Vehicle with id randomCar_1716600135352444842 and type vehicle.dodge.charger_police_2020 depart at 233-->
	<vehicle id="randomCar_1716600135352444842" type="vehicle.dodge.charger_police_2020" depart="233">
		<route edges="-1533 -1581 -1622 -1529 -1614 -1615 -1511 -1512 -1504 -1505 -1583 -1593 -1624 -1557"/>
	</vehicle>
	<!--Vehicle with id randomCar_1716600135360365332 and type vehicle.dodge.charger_police_2020 depart at 233-->
	<vehicle id="randomCar_1716600135360365332" type="vehicle.dodge.charger_police_2020" depart="233">
		<route edges="-1548 -1544 -1665 -1666 -1521 -1504 -1505 -1583 -1593 -1624 -1522 -1523 -1600 -1599 -1637 -1635 -1609 -1613 -1552 -1606 -1455 -1540 -1579 -1517 -1537 -1594 -1588"/>
	</vehicle>
	<!--Vehicle with id randomCar_1716600135362741359 and type vehicle.dodge.charger_police_2020 depart at 233-->
	<vehicle id="randomCar_1716600135362741359" type="vehicle.dodge.charger_police_2020" depart="233">
		<route edges="-1543 -1544 -1665 -1666 -1521 -1504 -1505 -1583 -1593 -1624 -1522 -1523 -1600 -1599 -1637 -1635 -1609 -1613 -1552 -1606 -1455 -1540 -1578 -1619 -1647 -1648 -1649 -1535 -1536"/>
	</vehicle>
	<!--Vehicle with id randomCar_1716600135366974808 and type vehicle.dodge.charger_police_2020 depart at 233-->
	<vehicle id="randomCar_1716600135366974808" type="vehicle.dodge.charger_police_2020" depart="233">
		<route edges="-1629 -1533 -1581 -1622 -1636 -1643 -1638 -1597 -1577 -1627 -1628 -1515 -1432 -1586"/>
	</vehicle>
	<!--Vehicle with id randomCar_1716600135370334946 and type vehicle.dodge.charger_police_2020 depart at 233-->
	<vehicle id="randomCar_1716600135370334946" type="vehicle.dodge.charger_police_2020" depart="233">
		<route edges="-1609"/>
	</vehicle>
	<!--Vehicle with id randomCar_1716600134713714959 and type vehicle.dodge.charger_police_2020 depart at 234-->
	<vehicle id="randomCar_1716600134713714959" type="vehicle.dodge.charger_police_2020" depart="234">
		<route edges="-1531 -1596 -1391 -1471 -1467 -1529 -1614 -1615 -1511 -1512 -1504 -1505 -1583 -1593 -1624 -1522 -1523 -1600 -1599 -1637 -1635 -1609 -1613 -1552 -1606 -1455 -1540 -1578 -1433"/>
	</vehicle>
	<!--Vehicle with id randomCar_1716600134756330945 and type vehicle.dodge.charger_police_2020 depart at 234-->
	<vehicle id="randomCar_1716600134756330945" type="vehicle.dodge.charger_police_2020" depart="234">