<?xml version='1.0' encoding='UTF-8'?>
<!-- generated on 2024-04-09 13:59:11 by Eclipse SUMO netconvert Version 1.12.0
<configuration xmlns:xsi="http://www.w3.org/2001/XMLSchema-instance" xsi:noNamespaceSchemaLocation="http://sumo.dlr.de/xsd/netconvertConfiguration.xsd">

    <input>
        <type-files value="/home/pi/Desktop/CARLA_0.9.15/Co-Simulation/Sumo/util/data/opendrive_netconvert.typ.xml"/>
        <opendrive-files value="/tmp/tmpuph9w44i/Carla/Maps/OpenDriveMap.xodr"/>
    </input>

    <output>
        <output-file value="/tmp/tmp2_mofqrx/OpenDriveMap.net.xml"/>
        <output.original-names value="true"/>
    </output>

    <processing>
        <geometry.remove value="true"/>
        <geometry.min-radius.fix value="true"/>
        <geometry.max-grade.fix value="false"/>
    </processing>

    <tls_building>
        <tls.discard-loaded value="true"/>
        <tls.left-green.time value="0"/>
    </tls_building>

    <junctions>
        <rectangular-lane-cut value="true"/>
    </junctions>

    <formats>
        <opendrive.import-all-lanes value="true"/>
        <opendrive.curve-resolution value="1"/>
    </formats>

    <report>
        <aggregate-warnings value="5"/>
    </report>

</configuration>
-->
<net xmlns:xsi="http://www.w3.org/2001/XMLSchema-instance" version="1.9" junctionCornerDetail="5" rectangularLaneCut="true" limitTurnSpeed="5.50" xsi:noNamespaceSchemaLocation="http://sumo.dlr.de/xsd/net_file.xsd">
  <location netOffset="-0.31,0.00" convBoundary="0.00,0.00,1162.54,1178.47" origBoundary="0.000000,0.000000,0.000000,0.000000" projParameter="+proj=tmerc +lat_0=40.62844751420755 +lon_0=-8.661929556877068 +x_0=0 +y_0=0 +k_0=1.0 +ellps=GRS80 +units=m +no_defs"/>
  <type id="bidirectional" priority="1" speed="1.39" disallow="pedestrian tram rail_urban rail rail_electric rail_fast ship" width="3.65"/>
  <type id="biking" priority="-1" speed="5.56" allow="bicycle" width="1.50"/>
  <type id="border" priority="0" speed="1.39" disallow="all" discard="1" width="0.10"/>
  <type id="driving" priority="1" speed="13.89" disallow="pedestrian tram rail_urban rail rail_electric rail_fast ship" width="3.65"/>
  <type id="entry" priority="1" speed="22.22" disallow="pedestrian tram rail_urban rail rail_electric rail_fast ship" width="3.65"/>
  <type id="exit" priority="1" speed="22.22" disallow="pedestrian tram rail_urban rail rail_electric rail_fast ship" width="3.65"/>
  <type id="median" priority="0" speed="1.39" disallow="all" discard="1" width="0.10"/>
  <type id="mwyEntry" priority="1" speed="22.22" allow="private emergency authority army vip passenger hov taxi bus coach delivery truck trailer motorcycle evehicle custom1 custom2" width="3.65"/>
  <type id="mwyExit" priority="1" speed="22.22" allow="private emergency authority army vip passenger hov taxi bus coach delivery truck trailer motorcycle evehicle custom1 custom2" width="3.65"/>
  <type id="none" priority="0" speed="1.39" disallow="all" discard="1" width="1.00"/>
  <type id="offRamp" priority="1" speed="22.22" allow="private emergency authority army vip passenger hov taxi bus coach delivery truck trailer motorcycle evehicle custom1 custom2" width="3.65"/>
  <type id="onRamp" priority="1" speed="22.22" allow="private emergency authority army vip passenger hov taxi bus coach delivery truck trailer motorcycle evehicle custom1 custom2" width="3.65"/>
  <type id="parking" priority="1" speed="1.39" disallow="pedestrian tram rail_urban rail rail_electric rail_fast ship" width="2.50"/>
  <type id="rail" priority="3" speed="33.33" allow="rail_urban rail rail_electric rail_fast" width="3.65"/>
  <type id="restricted" priority="0" speed="13.89" disallow="all" width="3.65"/>
  <type id="roadWorks" priority="0" speed="1.39" allow="authority" width="3.65"/>
  <type id="shoulder" priority="0" speed="1.39" disallow="all" discard="1" width="1.00"/>
  <type id="sidewalk" priority="-2" speed="2.78" allow="pedestrian" width="2.50"/>
  <type id="special1" priority="1" speed="22.22" allow="custom1" discard="1" width="3.65"/>
  <type id="special2" priority="1" speed="22.22" allow="custom2" discard="1" width="3.65"/>
  <type id="special3" priority="1" speed="22.22" allow="custom1 custom2" discard="1" width="3.65"/>
  <type id="stop" priority="1" speed="13.89" disallow="pedestrian tram rail_urban rail rail_electric rail_fast ship" width="3.65"/>
  <type id="tram" priority="2" speed="13.89" allow="tram" width="3.65"/>
  <edge id=":1_0" function="internal">
    <lane id=":1_0_0" index="0" allow="pedestrian" speed="13.89" length="15.62" width="2.80" shape="1038.42,837.97 1033.43,852.77">
      <param key="origId" value="1909_-2"/>
    </lane>
    <lane id=":1_0_1" index="1" disallow="pedestrian tram rail_urban rail rail_electric rail_fast ship" speed="13.89" length="15.62" width="3.35" shape="1035.51,836.98 1030.52,851.78">
      <param key="origId" value="1909_-1"/>
    </lane>
  </edge>
  <edge id=":1_2" function="internal">
    <lane id=":1_2_0" index="0" disallow="pedestrian tram rail_urban rail rail_electric rail_fast ship" speed="7.56" length="13.32" width="3.35" shape="1035.51,836.98 1033.74,840.86 1031.55,843.22 1028.94,844.08 1025.91,843.42">
      <param key="origId" value="1910_-1"/>
    </lane>
  </edge>
  <edge id=":1_3" function="internal">
    <lane id=":1_3_0" index="0" allow="pedestrian" speed="9.18" length="4.33" width="2.80" shape="1028.48,837.53 1032.09,839.92">
      <param key="origId" value="1911_-2"/>
    </lane>
    <lane id=":1_3_1" index="1" disallow="pedestrian tram rail_urban rail rail_electric rail_fast ship" speed="8.01" length="2.06" width="3.35" shape="1027.25,840.35 1028.95,841.51">
      <param key="origId" value="1911_-1"/>
    </lane>
  </edge>
  <edge id=":1_5" function="internal">
    <lane id=":1_5_0" index="0" allow="pedestrian" speed="9.18" length="13.56" width="2.80" shape="1032.09,839.92 1034.12,843.26 1034.56,847.54 1033.43,852.77">
      <param key="origId" value="1911_-2"/>
    </lane>
  </edge>
  <edge id=":1_6" function="internal">
    <lane id=":1_6_0" index="0" disallow="pedestrian tram rail_urban rail rail_electric rail_fast ship" speed="8.01" length="11.18" width="3.35" shape="1028.95,841.51 1029.78,842.08 1031.17,844.56 1031.42,847.80 1030.52,851.78">
      <param key="origId" value="1911_-1"/>
    </lane>
  </edge>
  <edge id=":10_0" function="internal">
    <lane id=":10_0_0" index="0" allow="pedestrian" speed="8.36" length="13.44" width="2.80" shape="1108.38,459.42 1103.18,453.91 1102.47,448.09">
      <param key="origId" value="1868_-2"/>
    </lane>
    <lane id=":10_0_1" index="1" disallow="pedestrian tram rail_urban rail rail_electric rail_fast ship" speed="6.43" length="11.07" width="3.35" shape="1109.88,456.74 1107.06,453.69 1106.78,450.03 1108.52,447.29">
      <param key="origId" value="1868_-1"/>
    </lane>
  </edge>
  <edge id=":10_5" function="internal">
    <lane id=":10_5_0" index="0" allow="pedestrian" speed="8.36" length="14.67" width="2.80" shape="1102.47,448.09 1102.37,447.27 1105.60,441.63 1112.50,439.13">
      <param key="origId" value="1868_-2"/>
    </lane>
  </edge>
  <edge id=":10_6" function="internal">
    <lane id=":10_6_0" index="0" disallow="pedestrian tram rail_urban rail rail_electric rail_fast ship" speed="6.43" length="4.58" width="3.35" shape="1108.52,447.29 1108.75,446.93 1112.67,445.56">
      <param key="origId" value="1868_-1"/>
    </lane>
  </edge>
  <edge id=":10_2" function="internal">
    <lane id=":10_2_0" index="0" allow="pedestrian" speed="13.89" length="22.95" width="2.80" shape="1091.80,435.65 1097.52,438.23 1101.73,439.27 1106.16,439.37 1112.50,439.13">
      <param key="origId" value="1869_-3"/>
    </lane>
    <lane id=":10_2_1" index="1" disallow="pedestrian tram rail_urban rail rail_electric rail_fast ship" speed="13.89" length="22.95" width="3.35" shape="1090.42,438.40 1096.54,441.17 1101.05,442.31 1105.79,442.44 1112.58,442.21">
      <param key="origId" value="1869_-2"/>
    </lane>
    <lane id=":10_2_2" index="2" disallow="pedestrian tram rail_urban rail rail_electric rail_fast ship" speed="13.89" length="22.95" width="3.35" shape="1088.91,441.39 1095.47,444.37 1100.30,445.62 1105.38,445.80 1112.67,445.56">
      <param key="origId" value="1869_-1"/>
    </lane>
  </edge>
  <edge id=":100_0" function="internal">
    <lane id=":100_0_0" index="0" allow="pedestrian" speed="4.45" length="4.28" width="2.80" shape="561.32,793.57 560.28,792.68 559.33,792.32 558.48,792.49 557.71,793.18">
      <param key="origId" value="1784_-3"/>
    </lane>
    <lane id=":100_0_1" index="1" disallow="pedestrian tram rail_urban rail rail_electric rail_fast ship" speed="6.43" length="9.86" width="3.35" shape="563.55,791.46 561.28,789.59 559.14,788.95 557.14,789.53 555.26,791.33">
      <param key="origId" value="1784_-2"/>
    </lane>
    <lane id=":100_0_2" index="2" disallow="pedestrian tram rail_urban rail rail_electric rail_fast ship" speed="8.00" length="15.96" width="3.35" shape="565.99,789.16 562.38,786.23 558.94,785.28 555.67,786.31 552.58,789.31">
      <param key="origId" value="1784_-1"/>
    </lane>
  </edge>
  <edge id=":100_3" function="internal">
    <lane id=":100_3_0" index="0" allow="pedestrian" speed="13.89" length="11.27" width="2.80" shape="564.36,783.54 562.63,786.55 561.30,788.53 559.84,790.42 557.71,793.18">
      <param key="origId" value="1785_-3"/>
    </lane>
    <lane id=":100_3_1" index="1" disallow="pedestrian tram rail_urban rail rail_electric rail_fast ship" speed="13.89" length="11.27" width="3.35" shape="561.67,782.06 560.00,784.96 558.72,786.86 557.31,788.68 555.26,791.33">
      <param key="origId" value="1785_-2"/>
    </lane>
    <lane id=":100_3_2" index="2" disallow="pedestrian tram rail_urban rail rail_electric rail_fast ship" speed="13.89" length="11.27" width="3.35" shape="558.73,780.45 557.13,783.22 555.90,785.04 554.54,786.78 552.58,789.31">
      <param key="origId" value="1785_-1"/>
    </lane>
  </edge>
  <edge id=":101_0" function="internal">
    <lane id=":101_0_0" index="0" allow="pedestrian" speed="13.89" length="28.13" width="2.80" shape="557.59,793.34 551.95,800.20 547.23,804.89 542.76,808.80 537.88,813.33">
      <param key="origId" value="1794_-2"/>
    </lane>
  </edge>
  <edge id=":101_1" function="internal">
    <lane id=":101_1_0" index="0" disallow="pedestrian tram rail_urban rail rail_electric rail_fast ship" speed="9.86" length="27.57" width="3.35" shape="555.14,791.49 527.58,790.64">
      <param key="origId" value="1795_-2"/>
    </lane>
  </edge>
  <edge id=":101_2" function="internal">
    <lane id=":101_2_0" index="0" disallow="pedestrian tram rail_urban rail rail_electric rail_fast ship" speed="13.89" length="27.70" width="3.35" shape="555.14,791.49 549.59,798.23 544.96,802.81 540.57,806.65 535.71,811.15">
      <param key="origId" value="1794_-1"/>
    </lane>
  </edge>
  <edge id=":101_3" function="internal">
    <lane id=":101_3_0" index="0" disallow="pedestrian tram rail_urban rail rail_electric rail_fast ship" speed="9.64" length="26.29" width="3.35" shape="552.46,789.47 526.53,793.82">
      <param key="origId" value="1795_-1"/>
    </lane>
  </edge>
  <edge id=":102_0" function="internal">
    <lane id=":102_0_0" index="0" allow="pedestrian" speed="13.89" length="12.34" width="2.80" shape="535.67,728.58 536.56,731.65 536.30,734.27 536.40,736.54 538.34,738.55">
      <param key="origId" value="1679_-3"/>
    </lane>
    <lane id=":102_0_1" index="1" disallow="pedestrian tram rail_urban rail rail_electric rail_fast ship" speed="13.89" length="12.34" width="3.35" shape="533.02,730.13 534.15,733.59 534.13,736.49 534.50,738.98 536.82,741.22">
      <param key="origId" value="1679_-2"/>
    </lane>
    <lane id=":102_0_2" index="2" disallow="pedestrian tram rail_urban rail rail_electric rail_fast ship" speed="13.89" length="12.34" width="3.35" shape="530.14,731.83 531.53,735.71 531.75,738.90 532.42,741.63 535.17,744.14">
      <param key="origId" value="1679_-1"/>
    </lane>
  </edge>
  <edge id=":102_3" function="internal">
    <lane id=":102_3_0" index="0" allow="pedestrian" speed="13.89" length="11.92" width="2.80" shape="525.02,737.07 529.10,736.63 532.00,736.39 534.74,736.85 538.34,738.55">
      <param key="origId" value="1680_-3"/>
    </lane>
    <lane id=":102_3_1" index="1" disallow="pedestrian tram rail_urban rail rail_electric rail_fast ship" speed="13.89" length="11.92" width="3.35" shape="525.23,740.13 528.78,739.73 531.30,739.45 533.69,739.78 536.82,741.22">
      <param key="origId" value="1680_-2"/>
    </lane>
    <lane id=":102_3_2" index="2" disallow="pedestrian tram rail_urban rail rail_electric rail_fast ship" speed="13.22" length="11.92" width="3.35" shape="525.46,743.48 528.43,743.10 530.55,742.78 532.55,742.97 535.17,744.14">
      <param key="origId" value="1680_-1"/>
    </lane>
  </edge>
  <edge id=":103_0" function="internal">
    <lane id=":103_0_0" index="0" allow="pedestrian" speed="22.22" length="11.41" width="2.80" shape="1131.83,538.77 1130.13,541.58 1128.90,543.49 1127.88,545.49 1126.81,548.57">
      <param key="origId" value="1662_-2"/>
    </lane>
    <lane id=":103_0_1" index="1" disallow="pedestrian tram rail_urban rail rail_electric rail_fast ship" speed="22.22" length="11.41" width="3.35" shape="1129.16,537.24 1127.35,540.23 1126.06,542.27 1125.00,544.40 1123.87,547.68">
      <param key="origId" value="1662_-1"/>
    </lane>
  </edge>
  <edge id=":103_2" function="internal">
    <lane id=":103_2_0" index="0" allow="pedestrian" speed="9.28" length="11.13" width="2.80" shape="1124.01,536.75 1126.06,539.20 1127.21,541.99 1127.46,545.11 1126.81,548.57">
      <param key="origId" value="1663_-2"/>
    </lane>
    <lane id=":103_2_1" index="1" disallow="pedestrian tram rail_urban rail rail_electric rail_fast ship" speed="8.04" length="11.13" width="3.35" shape="1121.94,539.01 1123.39,540.78 1124.20,542.81 1124.36,545.11 1123.87,547.68">
      <param key="origId" value="1663_-1"/>
    </lane>
  </edge>
  <edge id=":105_0" function="internal">
    <lane id=":105_0_0" index="0" allow="pedestrian" speed="11.11" length="0.14" width="2.80" shape="605.53,810.60 605.69,810.78">
      <param key="origId" value="1809_-3"/>
    </lane>
    <lane id=":105_0_1" index="1" disallow="pedestrian tram rail_urban rail rail_electric rail_fast ship" speed="11.11" length="0.14" width="3.35" shape="603.32,812.74 603.37,812.80">
      <param key="origId" value="1809_-2"/>
    </lane>
    <lane id=":105_0_2" index="2" disallow="pedestrian tram rail_urban rail rail_electric rail_fast ship" speed="11.11" length="0.14" width="3.35" shape="600.91,815.06 600.85,815.00">
      <param key="origId" value="1809_-1"/>
    </lane>
  </edge>
  <edge id=":106_0" function="internal">
    <lane id=":106_0_0" index="0" disallow="pedestrian tram rail_urban rail rail_electric rail_fast ship" speed="20.84" length="2.81" width="3.35" shape="882.59,1102.57 884.71,1104.41">
      <param key="origId" value="1690_-1"/>
    </lane>
  </edge>
  <edge id=":107_0" function="internal">
    <lane id=":107_0_0" index="0" disallow="pedestrian tram rail_urban rail rail_electric rail_fast ship" speed="20.84" length="2.89" width="3.35" shape="882.23,1107.12 880.05,1105.21">
      <param key="origId" value="1691_-1"/>
    </lane>
  </edge>
  <edge id=":108_0" function="internal">
    <lane id=":108_0_0" index="0" allow="pedestrian" speed="13.89" length="3.96" width="2.80" shape="797.23,1033.12 796.39,1032.44 795.56,1032.30 794.71,1032.17 793.82,1031.53">
      <param key="origId" value="1688_-2"/>
    </lane>
    <lane id=":108_0_1" index="1" disallow="pedestrian tram rail_urban rail rail_electric rail_fast ship" speed="13.89" length="3.96" width="3.35" shape="799.67,1031.26 798.80,1030.54 797.94,1030.36 797.07,1030.20 796.15,1029.52">
      <param key="origId" value="1688_-1"/>
    </lane>
  </edge>
  <edge id=":108_2" function="internal">
    <lane id=":108_2_0" index="0" allow="pedestrian" speed="13.89" length="3.56" width="2.80" shape="797.30,1032.70 796.36,1032.18 795.51,1032.17 794.68,1032.12 793.82,1031.53">
      <param key="origId" value="1689_-2"/>
    </lane>
    <lane id=":108_2_1" index="1" disallow="pedestrian tram rail_urban rail rail_electric rail_fast ship" speed="13.89" length="3.56" width="3.35" shape="799.39,1030.44 798.93,1029.67 798.99,1028.93 799.07,1028.17 798.68,1027.33">
      <param key="origId" value="1689_-1"/>
    </lane>
  </edge>
  <edge id=":109_0" function="internal">
    <lane id=":109_0_0" index="0" allow="pedestrian" speed="11.11" length="4.22" width="2.80" shape="794.56,1000.99 795.14,1002.03 795.19,1002.94 795.23,1003.85 795.82,1004.89">
      <param key="origId" value="1686_-2"/>
    </lane>
    <lane id=":109_0_1" index="1" disallow="pedestrian tram rail_urban rail rail_electric rail_fast ship" speed="11.11" length="4.22" width="3.35" shape="792.26,1003.02 792.84,1004.07 792.89,1004.99 792.94,1005.90 793.53,1006.95">
      <param key="origId" value="1686_-1"/>
    </lane>
  </edge>
  <edge id=":109_2" function="internal">
    <lane id=":109_2_0" index="0" disallow="pedestrian tram rail_urban rail rail_electric rail_fast ship" speed="12.50" length="4.37" width="3.35" shape="789.75,1005.24 790.74,1006.06 791.61,1006.44 792.39,1006.88 793.14,1007.87">
      <param key="origId" value="1687_-1"/>
    </lane>
  </edge>
  <edge id=":11_0" function="internal">
    <lane id=":11_0_0" index="0" allow="pedestrian" speed="13.89" length="2.98" width="2.80" shape="1122.61,998.45 1120.49,996.38">
      <param key="origId" value="1806_-2"/>
      <param key="signalID" value="154"/>
    </lane>
    <lane id=":11_0_1" index="1" disallow="pedestrian tram rail_urban rail rail_electric rail_fast ship" speed="13.89" length="2.98" width="3.35" shape="1124.78,996.27 1122.63,994.17">
      <param key="origId" value="1806_-1"/>
      <param key="signalID" value="154"/>
    </lane>
  </edge>
  <edge id=":110_0" function="internal">
    <lane id=":110_0_0" index="0" allow="pedestrian" speed="11.11" length="0.30" width="2.80" shape="665.60,906.47 665.39,906.26">
      <param key="origId" value="1807_-3"/>
    </lane>
    <lane id=":110_0_1" index="1" disallow="pedestrian tram rail_urban rail rail_electric rail_fast ship" speed="11.11" length="0.30" width="3.35" shape="667.77,904.29 667.56,904.08">
      <param key="origId" value="1807_-2"/>
    </lane>
    <lane id=":110_0_2" index="2" disallow="pedestrian tram rail_urban rail rail_electric rail_fast ship" speed="11.11" length="0.30" width="3.35" shape="670.14,901.92 669.92,901.70">
      <param key="origId" value="1807_-1"/>
    </lane>
  </edge>
  <edge id=":111_0" function="internal">
    <lane id=":111_0_0" index="0" allow="pedestrian" speed="13.89" length="13.98" width="2.80" shape="885.05,1121.04 874.85,1111.58">
      <param key="origId" value="1922_-2"/>
    </lane>
    <lane id=":111_0_1" index="1" disallow="pedestrian tram rail_urban rail rail_electric rail_fast ship" speed="13.89" length="13.98" width="3.35" shape="887.18,1118.82 876.87,1109.27">
      <param key="origId" value="1922_-1"/>
    </lane>
  </edge>
  <edge id=":111_2" function="internal">
    <lane id=":111_2_0" index="0" allow="pedestrian" speed="5.51" length="6.42" width="2.80" shape="898.38,1098.38 897.26,1100.09 896.83,1101.61 897.10,1102.92 898.06,1104.03">
      <param key="origId" value="1923_-2"/>
    </lane>
    <lane id=":111_2_1" index="1" disallow="pedestrian tram rail_urban rail rail_electric rail_fast ship" speed="7.21" length="11.44" width="3.35" shape="895.99,1096.45 894.16,1099.35 893.58,1101.98 894.25,1104.35 896.17,1106.46">
      <param key="origId" value="1923_-1"/>
    </lane>
  </edge>
  <edge id=":111_4" function="internal">
    <lane id=":111_4_0" index="0" disallow="pedestrian tram rail_urban rail rail_electric rail_fast ship" speed="10.26" length="24.60" width="3.35" shape="895.99,1096.45 889.55,1103.73 884.21,1108.29 879.98,1110.14 876.87,1109.27">
      <param key="origId" value="1924_-1"/>
    </lane>
  </edge>
  <edge id=":111_5" function="internal">
    <lane id=":111_5_0" index="0" allow="pedestrian" speed="11.11" length="12.76" width="2.80" shape="888.44,1095.88 891.18,1098.43 893.10,1100.13 895.10,1101.73 898.06,1104.03">
      <param key="origId" value="1925_-2"/>
    </lane>
    <lane id=":111_5_1" index="1" disallow="pedestrian tram rail_urban rail rail_electric rail_fast ship" speed="11.11" length="12.76" width="3.35" shape="886.33,1098.12 889.14,1100.73 891.11,1102.46 893.15,1104.11 896.17,1106.46">
      <param key="origId" value="1925_-1"/>
    </lane>
  </edge>
  <edge id=":111_7" function="internal">
    <lane id=":111_7_0" index="0" disallow="pedestrian tram rail_urban rail rail_electric rail_fast ship" speed="6.78" length="17.89" width="3.35" shape="886.33,1098.12 888.14,1104.46 887.17,1108.43 883.41,1110.03 880.31,1109.67">
      <param key="origId" value="1926_-1"/>
    </lane>
  </edge>
  <edge id=":111_8" function="internal">
    <lane id=":111_8_0" index="0" disallow="pedestrian tram rail_urban rail rail_electric rail_fast ship" speed="6.78" length="3.46" width="3.35" shape="880.31,1109.67 876.87,1109.27">
      <param key="origId" value="1926_-1"/>
    </lane>
  </edge>
  <edge id=":112_0" function="internal">
    <lane id=":112_0_0" index="0" allow="pedestrian" speed="11.00" length="9.10" width="2.80" shape="1108.68,558.27 1106.24,557.49 1104.43,557.65 1102.57,558.36 1099.98,559.23">
      <param key="origId" value="1660_-2"/>
    </lane>
    <lane id=":112_0_1" index="1" disallow="pedestrian tram rail_urban rail rail_electric rail_fast ship" speed="12.18" length="11.22" width="3.35" shape="1109.97,555.48 1106.96,554.45 1104.71,554.50 1102.40,555.24 1099.20,556.26">
      <param key="origId" value="1660_-1"/>
    </lane>
  </edge>
  <edge id=":112_2" function="internal">
    <lane id=":112_2_0" index="0" disallow="pedestrian tram rail_urban rail rail_electric rail_fast ship" speed="9.29" length="9.10" width="3.35" shape="1109.97,555.48 1107.52,554.15 1105.63,552.69 1104.31,551.11 1103.55,549.41">
      <param key="origId" value="1661_-1"/>
    </lane>
  </edge>
  <edge id=":113_0" function="internal">
    <lane id=":113_0_0" index="0" allow="pedestrian" speed="10.53" length="10.31" width="2.80" shape="1100.53,550.01 1099.88,546.66 1099.82,543.67 1100.35,541.04 1101.47,538.76">
      <param key="origId" value="1878_-2"/>
    </lane>
    <lane id=":113_0_1" index="1" disallow="pedestrian tram rail_urban rail rail_electric rail_fast ship" speed="9.36" length="10.31" width="3.35" shape="1103.50,549.22 1102.96,546.53 1102.86,544.18 1103.22,542.17 1104.02,540.49">
      <param key="origId" value="1878_-1"/>
    </lane>
  </edge>
  <edge id=":113_2" function="internal">
    <lane id=":113_2_0" index="0" allow="pedestrian" speed="22.22" length="11.00" width="2.80" shape="1094.59,546.81 1096.90,544.67 1098.38,543.09 1099.69,541.37 1101.47,538.76">
      <param key="origId" value="1877_-2"/>
    </lane>
    <lane id=":113_2_1" index="1" disallow="pedestrian tram rail_urban rail rail_electric rail_fast ship" speed="22.22" length="11.00" width="3.35" shape="1096.66,549.09 1099.13,546.80 1100.72,545.12 1102.12,543.27 1104.02,540.49">
      <param key="origId" value="1877_-1"/>
    </lane>
  </edge>
  <edge id=":114_0" function="internal">
    <lane id=":114_0_0" index="0" allow="pedestrian" speed="22.22" length="12.99" width="2.80" shape="1106.22,533.85 1109.39,531.71 1111.32,529.93 1113.06,527.89 1115.64,525.02">
      <param key="origId" value="1668_-2"/>
    </lane>
    <lane id=":114_0_1" index="1" disallow="pedestrian tram rail_urban rail rail_electric rail_fast ship" speed="22.22" length="13.81" width="3.35" shape="1107.81,536.48 1111.19,534.22 1113.26,532.33 1115.12,530.18 1117.87,527.14">
      <param key="origId" value="1668_-1"/>
    </lane>
  </edge>
  <edge id=":114_2" function="internal">
    <lane id=":114_2_0" index="0" disallow="pedestrian tram rail_urban rail rail_electric rail_fast ship" speed="8.68" length="13.17" width="3.35" shape="1107.81,536.48 1111.14,534.97 1114.27,534.59 1117.22,535.34 1119.97,537.21">
      <param key="origId" value="1669_-1"/>
    </lane>
  </edge>
  <edge id=":115_0" function="internal">
    <lane id=":115_0_0" index="0" allow="pedestrian" speed="11.19" length="8.81" width="2.80" shape="1113.75,564.20 1112.68,562.12 1111.90,560.64 1110.82,559.48 1108.86,558.35">
      <param key="origId" value="1802_-2"/>
    </lane>
    <lane id=":115_0_1" index="1" disallow="pedestrian tram rail_urban rail rail_electric rail_fast ship" speed="12.47" length="8.81" width="3.35" shape="1116.42,562.68 1115.06,560.11 1114.02,558.32 1112.62,556.94 1110.16,555.56">
      <param key="origId" value="1802_-1"/>
    </lane>
  </edge>
  <edge id=":115_2" function="internal">
    <lane id=":115_2_0" index="0" allow="pedestrian" speed="9.88" length="7.95" width="2.80" shape="1117.80,558.29 1115.38,559.01 1113.08,559.26 1110.91,559.04 1108.86,558.35">
      <param key="origId" value="1803_-2"/>
    </lane>
    <lane id=":115_2_1" index="1" disallow="pedestrian tram rail_urban rail rail_electric rail_fast ship" speed="8.56" length="7.95" width="3.35" shape="1116.70,555.42 1114.88,555.97 1113.19,556.17 1111.61,556.04 1110.16,555.56">
      <param key="origId" value="1803_-1"/>
    </lane>
  </edge>
  <edge id=":116_0" function="internal">
    <lane id=":116_0_0" index="0" allow="pedestrian" speed="13.89" length="14.41" width="2.80" shape="1153.40,468.19 1151.70,482.49">
      <param key="origId" value="1672_-2"/>
    </lane>
    <lane id=":116_0_1" index="1" disallow="pedestrian tram rail_urban rail rail_electric rail_fast ship" speed="13.89" length="14.41" width="3.35" shape="1150.34,467.89 1148.64,482.20">
      <param key="origId" value="1672_-1"/>
    </lane>
  </edge>
  <edge id=":116_2" function="internal">
    <lane id=":116_2_0" index="0" disallow="pedestrian tram rail_urban rail rail_electric rail_fast ship" speed="6.56" length="9.42" width="3.35" shape="1150.34,467.89 1149.72,470.46 1148.46,472.18 1146.56,473.05 1144.01,473.08">
      <param key="origId" value="1673_-1"/>
    </lane>
  </edge>
  <edge id=":117_0" function="internal">
    <lane id=":117_0_0" index="0" allow="pedestrian" speed="18.05" length="11.13" width="2.80" shape="1126.75,548.76 1126.33,551.91 1126.90,554.13 1127.66,556.40 1127.83,559.66">
      <param key="origId" value="1804_-2"/>
    </lane>
    <lane id=":117_0_1" index="1" disallow="pedestrian tram rail_urban rail rail_electric rail_fast ship" speed="18.05" length="11.70" width="3.35" shape="1123.81,547.87 1123.33,551.19 1123.88,553.53 1124.62,555.92 1124.77,559.36">
      <param key="origId" value="1804_-1"/>
    </lane>
  </edge>
  <edge id=":117_2" function="internal">
    <lane id=":117_2_0" index="0" disallow="pedestrian tram rail_urban rail rail_electric rail_fast ship" speed="9.68" length="10.51" width="3.35" shape="1123.81,547.87 1122.76,550.38 1121.26,552.46 1119.32,554.11 1116.93,555.33">
      <param key="origId" value="1805_-1"/>
    </lane>
  </edge>
  <edge id=":118_0" function="internal">
    <lane id=":118_0_0" index="0" allow="pedestrian" speed="13.89" length="14.15" width="2.80" shape="460.04,868.04 449.98,858.09">
      <param key="origId" value="1740_-2"/>
    </lane>
    <lane id=":118_0_1" index="1" disallow="pedestrian tram rail_urban rail rail_electric rail_fast ship" speed="13.89" length="14.15" width="3.35" shape="462.20,865.85 452.14,855.91">
      <param key="origId" value="1740_-1"/>
    </lane>
  </edge>
  <edge id=":118_2" function="internal">
    <lane id=":118_2_0" index="0" disallow="pedestrian tram rail_urban rail rail_electric rail_fast ship" speed="6.54" length="9.15" width="3.35" shape="462.20,865.85 460.68,863.85 460.18,861.85 460.68,859.85 462.19,857.84">
      <param key="origId" value="1741_-1"/>
    </lane>
  </edge>
  <edge id=":119_0" function="internal">
    <lane id=":119_0_0" index="0" allow="pedestrian" speed="8.05" length="3.74" width="2.80" shape="475.27,852.48 473.17,849.39">
      <param key="origId" value="1738_-2"/>
    </lane>
    <lane id=":119_0_1" index="1" disallow="pedestrian tram rail_urban rail rail_electric rail_fast ship" speed="6.68" length="4.09" width="3.35" shape="477.56,850.43 476.16,848.38 475.77,846.82">
      <param key="origId" value="1738_-1"/>
    </lane>
  </edge>
  <edge id=":119_4" function="internal">
    <lane id=":119_4_0" index="0" allow="pedestrian" speed="8.05" length="9.79" width="2.80" shape="473.17,849.39 472.44,846.34 473.11,843.34 475.15,840.39">
      <param key="origId" value="1738_-2"/>
    </lane>
  </edge>
  <edge id=":119_5" function="internal">
    <lane id=":119_5_0" index="0" disallow="pedestrian tram rail_urban rail rail_electric rail_fast ship" speed="6.68" length="4.80" width="3.35" shape="475.77,846.82 475.66,846.37 476.08,844.41 477.40,842.49">
      <param key="origId" value="1738_-1"/>
    </lane>
  </edge>
  <edge id=":119_2" function="internal">
    <lane id=":119_2_0" index="0" allow="pedestrian" speed="13.89" length="13.37" width="2.80" shape="465.84,849.90 475.15,840.39">
      <param key="origId" value="1739_-2"/>
    </lane>
    <lane id=":119_2_1" index="1" disallow="pedestrian tram rail_urban rail rail_electric rail_fast ship" speed="13.89" length="13.37" width="3.35" shape="468.01,852.08 477.40,842.49">
      <param key="origId" value="1739_-1"/>
    </lane>
  </edge>
  <edge id=":12_0" function="internal">
    <lane id=":12_0_0" index="0" allow="pedestrian" speed="9.43" length="20.13" width="2.80" shape="714.30,535.96 709.84,532.61 707.49,528.68 707.26,524.15 709.13,519.04">
      <param key="origId" value="1904_-2"/>
    </lane>
    <lane id=":12_0_1" index="1" disallow="pedestrian tram rail_urban rail rail_electric rail_fast ship" speed="7.61" length="12.62" width="3.35" shape="715.79,533.26 713.69,531.44 712.82,528.97 713.19,525.86 714.78,522.10">
      <param key="origId" value="1904_-1"/>