<?xml version="1.0" encoding="UTF-8"?>

<routes xmlns:xsi="http://www.w3.org/2001/XMLSchema-instance" xsi:noNamespaceSchemaLocation="http://sumo.dlr.de/xsd/routes_file.xsd">
    <vehicle id="0" type="vehicle.dodge.charger_police_2020" depart="3.00" arrival="10.00" color="1,0,0">
        <route edges="-1466 -1465"/> 
    </vehicle>

    <person id="1" type="walker.pedestrian.0001" depart="5.00" color="1,1,0">
        <walk edges="-1661 -1631 -1427"/>
    </person>

</routes>



