<?xml version="1.0" encoding="UTF-8"?>

<!-- generated on 2024-05-24 11:58:54 by Eclipse SUMO netedit Version 1.12.0
<configuration xmlns:xsi="http://www.w3.org/2001/XMLSchema-instance" xsi:noNamespaceSchemaLocation="http://sumo.dlr.de/xsd/netconvertConfiguration.xsd">

    <input>
        <sumo-net-file value="/home/pi/Desktop/PI_Digital_Twin/DigitalTwin/backend/Adapters/co_simulation/sumo_configuration/simple-map/UAcopy.net.xml"/>
    </input>

    <output>
        <output-file value="/home/pi/Desktop/PI_Digital_Twin/DigitalTwin/backend/Adapters/co_simulation/sumo_configuration/simple-map/UAcopy.net.xml"/>
    </output>

    <processing>
        <geometry.min-radius.fix.railways value="false"/>
        <geometry.max-grade.fix value="false"/>
        <offset.disable-normalization value="true"/>
        <lefthand value="false"/>
    </processing>

    <junctions>
        <no-turnarounds value="true"/>
        <junctions.corner-detail value="5"/>
        <junctions.limit-turn-speed value="5.5"/>
        <rectangular-lane-cut value="true"/>
    </junctions>

    <pedestrian>
        <walkingareas value="false"/>
    </pedestrian>

    <report>
        <aggregate-warnings value="5"/>
    </report>

</configuration>
-->

<net version="1.9" junctionCornerDetail="5" rectangularLaneCut="true" limitTurnSpeed="5.50" xmlns:xsi="http://www.w3.org/2001/XMLSchema-instance" xsi:noNamespaceSchemaLocation="http://sumo.dlr.de/xsd/net_file.xsd">

    <location netOffset="-0.31,-1.99" convBoundary="0.00,0.00,1162.54,1226.73" origBoundary="0.000000,0.000000,0.000000,0.000000" projParameter="+proj=tmerc +lat_0=40.62799802003675 +lon_0=-8.661929510719308 +x_0=0 +y_0=0 +k_0=1.0 +ellps=GRS80 +units=m +no_defs"/>

    <type id="bidirectional" priority="1" speed="1.39" disallow="pedestrian tram rail_urban rail rail_electric rail_fast ship" width="3.65"/>
    <type id="biking" priority="-1" speed="5.56" allow="bicycle" width="1.50"/>
    <type id="border" priority="0" speed="1.39" disallow="all" discard="1" width="0.10"/>
    <type id="driving" priority="1" speed="13.89" disallow="pedestrian tram rail_urban rail rail_electric rail_fast ship" width="3.65"/>
    <type id="entry" priority="1" speed="22.22" disallow="pedestrian tram rail_urban rail rail_electric rail_fast ship" width="3.65"/>
    <type id="exit" priority="1" speed="22.22" disallow="pedestrian tram rail_urban rail rail_electric rail_fast ship" width="3.65"/>
    <type id="median" priority="0" speed="1.39" disallow="all" discard="1" width="0.10"/>
    <type id="mwyEntry" priority="1" speed="22.22" allow="private emergency authority army vip passenger hov taxi bus coach delivery truck trailer motorcycle evehicle custom1 custom2" width="3.65"/>
    <type id="mwyExit" priority="1" speed="22.22" allow="private emergency authority army vip passenger hov taxi bus coach delivery truck trailer motorcycle evehicle custom1 custom2" width="3.65"/>
    <type id="none" priority="0" speed="1.39" disallow="all" discard="1" width="1.00"/>
    <type id="offRamp" priority="1" speed="22.22" allow="private emergency authority army vip passenger hov taxi bus coach delivery truck trailer motorcycle evehicle custom1 custom2" width="3.65"/>
    <type id="onRamp" priority="1" speed="22.22" allow="private emergency authority army vip passenger hov taxi bus coach delivery truck trailer motorcycle evehicle custom1 custom2" width="3.65"/>
    <type id="parking" priority="1" speed="1.39" disallow="pedestrian tram rail_urban rail rail_electric rail_fast ship" width="2.50"/>
    <type id="rail" priority="3" speed="33.33" allow="rail_urban rail rail_electric rail_fast" width="3.65"/>
    <type id="restricted" priority="0" speed="13.89" disallow="all" width="3.65"/>
    <type id="roadWorks" priority="0" speed="1.39" allow="authority" width="3.65"/>
    <type id="shoulder" priority="0" speed="1.39" disallow="all" discard="1" width="1.00"/>
    <type id="sidewalk" priority="-2" speed="2.78" allow="pedestrian" width="2.50"/>
    <type id="special1" priority="1" speed="22.22" allow="custom1" discard="1" width="3.65"/>
    <type id="special2" priority="1" speed="22.22" allow="custom2" discard="1" width="3.65"/>
    <type id="special3" priority="1" speed="22.22" allow="custom1 custom2" discard="1" width="3.65"/>
    <type id="stop" priority="1" speed="13.89" disallow="pedestrian tram rail_urban rail rail_electric rail_fast ship" width="3.65"/>
    <type id="tram" priority="2" speed="13.89" allow="tram" width="3.65"/>

    <edge id=":1_0" function="internal">
        <lane id=":1_0_0" index="0" allow="pedestrian" speed="13.89" length="15.62" width="2.80" shape="1038.42,886.23 1033.43,901.03">
            <param key="origId" value="1958_-2"/>
        </lane>
        <lane id=":1_0_1" index="1" disallow="pedestrian tram rail_urban rail rail_electric rail_fast ship" speed="13.89" length="15.62" width="3.35" shape="1035.51,885.25 1030.52,900.05">
            <param key="origId" value="1958_-1"/>
        </lane>
    </edge>
    <edge id=":1_2" function="internal">
        <lane id=":1_2_0" index="0" disallow="pedestrian tram rail_urban rail rail_electric rail_fast ship" speed="7.56" length="13.32" width="3.35" shape="1035.51,885.25 1033.74,889.12 1031.55,891.48 1028.94,892.34 1025.91,891.69">
            <param key="origId" value="1959_-1"/>
        </lane>
    </edge>
    <edge id=":1_3" function="internal">
        <lane id=":1_3_0" index="0" allow="pedestrian" speed="9.18" length="4.33" width="2.80" shape="1028.48,885.79 1032.09,888.19">
            <param key="origId" value="1960_-2"/>
        </lane>
        <lane id=":1_3_1" index="1" disallow="pedestrian tram rail_urban rail rail_electric rail_fast ship" speed="8.01" length="2.06" width="3.35" shape="1027.25,888.61 1028.95,889.78">
            <param key="origId" value="1960_-1"/>
        </lane>
    </edge>
    <edge id=":1_5" function="internal">
        <lane id=":1_5_0" index="0" allow="pedestrian" speed="9.18" length="13.56" width="2.80" shape="1032.09,888.19 1034.12,891.52 1034.57,895.80 1033.43,901.03">
            <param key="origId" value="1960_-2"/>
        </lane>
    </edge>
    <edge id=":1_6" function="internal">
        <lane id=":1_6_0" index="0" disallow="pedestrian tram rail_urban rail rail_electric rail_fast ship" speed="8.01" length="11.18" width="3.35" shape="1028.95,889.78 1029.79,890.34 1031.18,892.83 1031.42,896.06 1030.52,900.05">
            <param key="origId" value="1960_-1"/>
        </lane>
    </edge>
    <edge id=":10_0" function="internal">
        <lane id=":10_0_0" index="0" allow="pedestrian" speed="8.36" length="13.44" width="2.80" shape="1108.37,507.68 1103.17,502.17 1102.47,496.35">
            <param key="origId" value="1912_-2"/>
        </lane>
        <lane id=":10_0_1" index="1" disallow="pedestrian tram rail_urban rail rail_electric rail_fast ship" speed="6.43" length="11.08" width="3.35" shape="1109.88,505.00 1107.06,501.95 1106.78,498.29 1108.52,495.55">
            <param key="origId" value="1912_-1"/>
        </lane>
    </edge>
    <edge id=":10_5" function="internal">
        <lane id=":10_5_0" index="0" allow="pedestrian" speed="8.36" length="14.67" width="2.80" shape="1102.47,496.35 1102.37,495.53 1105.60,489.89 1112.51,487.39">
            <param key="origId" value="1912_-2"/>
        </lane>
    </edge>
    <edge id=":10_6" function="internal">
        <lane id=":10_6_0" index="0" disallow="pedestrian tram rail_urban rail rail_electric rail_fast ship" speed="6.43" length="4.58" width="3.35" shape="1108.52,495.55 1108.75,495.19 1112.67,493.82">
            <param key="origId" value="1912_-1"/>
        </lane>
    </edge>
    <edge id=":10_2" function="internal">
        <lane id=":10_2_0" index="0" allow="pedestrian" speed="13.89" length="22.96" width="2.80" shape="1091.80,483.91 1097.51,486.48 1101.73,487.52 1106.16,487.62 1112.51,487.39">
            <param key="origId" value="1913_-3"/>
        </lane>
        <lane id=":10_2_1" index="1" disallow="pedestrian tram rail_urban rail rail_electric rail_fast ship" speed="13.89" length="22.96" width="3.35" shape="1090.41,486.65 1096.53,489.43 1101.05,490.57 1105.79,490.70 1112.58,490.47">
            <param key="origId" value="1913_-2"/>
        </lane>
        <lane id=":10_2_2" index="2" disallow="pedestrian tram rail_urban rail rail_electric rail_fast ship" speed="13.89" length="22.96" width="3.35" shape="1088.90,489.64 1095.47,492.63 1100.30,493.88 1105.38,494.06 1112.67,493.82">
            <param key="origId" value="1913_-1"/>
        </lane>
    </edge>
    <edge id=":100_0" function="internal">
        <lane id=":100_0_0" index="0" allow="pedestrian" speed="4.45" length="4.28" width="2.80" shape="561.32,841.82 560.28,840.93 559.33,840.57 558.48,840.74 557.72,841.43">
            <param key="origId" value="1828_-3"/>
        </lane>
        <lane id=":100_0_1" index="1" disallow="pedestrian tram rail_urban rail rail_electric rail_fast ship" speed="6.43" length="9.87" width="3.35" shape="563.56,839.71 561.28,837.84 559.14,837.20 557.13,837.78 555.26,839.58">
            <param key="origId" value="1828_-2"/>
        </lane>
        <lane id=":100_0_2" index="2" disallow="pedestrian tram rail_urban rail rail_electric rail_fast ship" speed="8.00" length="15.97" width="3.35" shape="565.99,837.41 562.38,834.48 558.93,833.53 555.67,834.56 552.58,837.57">
            <param key="origId" value="1828_-1"/>
        </lane>
    </edge>
    <edge id=":100_3" function="internal">
        <lane id=":100_3_0" index="0" allow="pedestrian" speed="13.89" length="11.27" width="2.80" shape="564.36,831.80 562.63,834.81 561.30,836.78 559.84,838.67 557.72,841.43">
            <param key="origId" value="1829_-3"/>
        </lane>
        <lane id=":100_3_1" index="1" disallow="pedestrian tram rail_urban rail rail_electric rail_fast ship" speed="13.89" length="11.27" width="3.35" shape="561.67,830.32 560.00,833.22 558.71,835.11 557.30,836.93 555.26,839.58">
            <param key="origId" value="1829_-2"/>
        </lane>
        <lane id=":100_3_2" index="2" disallow="pedestrian tram rail_urban rail rail_electric rail_fast ship" speed="13.89" length="11.27" width="3.35" shape="558.73,828.71 557.13,831.48 555.89,833.30 554.54,835.03 552.58,837.57">
            <param key="origId" value="1829_-1"/>
        </lane>
    </edge>
    <edge id=":101_0" function="internal">
        <lane id=":101_0_0" index="0" allow="pedestrian" speed="13.89" length="28.13" width="2.80" shape="557.60,841.59 551.96,848.46 547.24,853.14 542.77,857.05 537.89,861.58">
            <param key="origId" value="1838_-2"/>
        </lane>
    </edge>
    <edge id=":101_1" function="internal">
        <lane id=":101_1_0" index="0" disallow="pedestrian tram rail_urban rail rail_electric rail_fast ship" speed="9.74" length="26.86" width="3.35" shape="555.14,839.74 528.28,839.14">
            <param key="origId" value="1839_-2"/>
        </lane>
    </edge>
    <edge id=":101_2" function="internal">
        <lane id=":101_2_0" index="0" disallow="pedestrian tram rail_urban rail rail_electric rail_fast ship" speed="13.89" length="27.69" width="3.35" shape="555.14,839.74 549.60,846.49 544.97,851.07 540.57,854.90 535.71,859.40">
            <param key="origId" value="1838_-1"/>
        </lane>
    </edge>
    <edge id=":101_3" function="internal">
        <lane id=":101_3_0" index="0" disallow="pedestrian tram rail_urban rail rail_electric rail_fast ship" speed="9.53" length="25.63" width="3.35" shape="552.46,837.73 527.24,842.32">
            <param key="origId" value="1839_-1"/>
        </lane>
    </edge>
    <edge id=":102_0" function="internal">
        <lane id=":102_0_0" index="0" allow="pedestrian" speed="13.89" length="12.34" width="2.80" shape="535.67,776.84 536.56,779.91 536.31,782.53 536.40,784.80 538.34,786.81">
            <param key="origId" value="1723_-3"/>
        </lane>
        <lane id=":102_0_1" index="1" disallow="pedestrian tram rail_urban rail rail_electric rail_fast ship" speed="13.89" length="12.34" width="3.35" shape="533.02,778.39 534.15,781.85 534.12,784.75 534.50,787.24 536.82,789.48">
            <param key="origId" value="1723_-2"/>
        </lane>
        <lane id=":102_0_2" index="2" disallow="pedestrian tram rail_urban rail rail_electric rail_fast ship" speed="13.89" length="12.34" width="3.35" shape="530.13,780.09 531.53,783.97 531.75,787.16 532.42,789.89 535.17,792.39">
            <param key="origId" value="1723_-1"/>
        </lane>
    </edge>
    <edge id=":102_3" function="internal">
        <lane id=":102_3_0" index="0" allow="pedestrian" speed="13.89" length="11.91" width="2.80" shape="525.04,785.33 529.12,784.90 532.01,784.65 534.75,785.12 538.34,786.81">
            <param key="origId" value="1724_-3"/>
        </lane>
        <lane id=":102_3_1" index="1" disallow="pedestrian tram rail_urban rail rail_electric rail_fast ship" speed="13.89" length="11.91" width="3.35" shape="525.24,788.40 528.79,787.99 531.31,787.71 533.70,788.04 536.82,789.48">
            <param key="origId" value="1724_-2"/>
        </lane>
        <lane id=":102_3_2" index="2" disallow="pedestrian tram rail_urban rail rail_electric rail_fast ship" speed="13.26" length="11.91" width="3.35" shape="525.46,791.74 528.43,791.37 530.55,791.04 532.55,791.23 535.17,792.39">
            <param key="origId" value="1724_-1"/>
        </lane>
    </edge>
    <edge id=":103_0" function="internal">
        <lane id=":103_0_0" index="0" allow="pedestrian" speed="22.22" length="11.41" width="2.80" shape="1131.84,587.02 1130.13,589.83 1128.90,591.74 1127.88,593.73 1126.81,596.81">
            <param key="origId" value="1706_-2"/>
        </lane>
        <lane id=":103_0_1" index="1" disallow="pedestrian tram rail_urban rail rail_electric rail_fast ship" speed="22.22" length="11.41" width="3.35" shape="1129.17,585.50 1127.35,588.49 1126.06,590.52 1125.00,592.65 1123.86,595.93">
            <param key="origId" value="1706_-1"/>
        </lane>
    </edge>
    <edge id=":103_2" function="internal">
        <lane id=":103_2_0" index="0" allow="pedestrian" speed="9.28" length="11.11" width="2.80" shape="1124.01,585.01 1126.05,587.46 1127.20,590.24 1127.45,593.36 1126.81,596.81">
            <param key="origId" value="1707_-2"/>
        </lane>
        <lane id=":103_2_1" index="1" disallow="pedestrian tram rail_urban rail rail_electric rail_fast ship" speed="8.05" length="11.11" width="3.35" shape="1121.93,587.28 1123.38,589.04 1124.19,591.07 1124.35,593.37 1123.86,595.93">
            <param key="origId" value="1707_-1"/>
        </lane>
    </edge>
    <edge id=":105_0" function="internal">
        <lane id=":105_0_0" index="0" allow="pedestrian" speed="11.11" length="0.31" width="2.80" shape="605.37,858.69 605.69,859.04">
            <param key="origId" value="1853_-3"/>
        </lane>
        <lane id=":105_0_1" index="1" disallow="pedestrian tram rail_urban rail rail_electric rail_fast ship" speed="11.11" length="0.31" width="3.35" shape="603.16,860.83 603.37,861.06">
            <param key="origId" value="1853_-2"/>
        </lane>
        <lane id=":105_0_2" index="2" disallow="pedestrian tram rail_urban rail rail_electric rail_fast ship" speed="11.11" length="0.31" width="3.35" shape="600.75,863.15 600.84,863.26">
            <param key="origId" value="1853_-1"/>
        </lane>
    </edge>
    <edge id=":106_0" function="internal">
        <lane id=":106_0_0" index="0" disallow="pedestrian tram rail_urban rail rail_electric rail_fast ship" speed="20.84" length="2.81" width="3.35" shape="882.59,1150.82 884.71,1152.67">
            <param key="origId" value="1734_-1"/>
        </lane>
    </edge>
    <edge id=":107_0" function="internal">
        <lane id=":107_0_0" index="0" disallow="pedestrian tram rail_urban rail rail_electric rail_fast ship" speed="20.84" length="2.89" width="3.35" shape="882.22,1155.37 880.05,1153.47">
            <param key="origId" value="1735_-1"/>
        </lane>
    </edge>
    <edge id=":108_0" function="internal">
        <lane id=":108_0_0" index="0" allow="pedestrian" speed="13.89" length="3.95" width="2.80" shape="797.23,1081.38 796.39,1080.70 795.56,1080.56 794.71,1080.43 793.82,1079.79">
            <param key="origId" value="1732_-2"/>
        </lane>
        <lane id=":108_0_1" index="1" disallow="pedestrian tram rail_urban rail rail_electric rail_fast ship" speed="13.89" length="3.95" width="3.35" shape="799.67,1079.52 798.80,1078.80 797.94,1078.62 797.07,1078.46 796.15,1077.78">
            <param key="origId" value="1732_-1"/>
        </lane>
    </edge>
    <edge id=":108_2" function="internal">
        <lane id=":108_2_0" index="0" allow="pedestrian" speed="13.89" length="3.56" width="2.80" shape="797.30,1080.96 796.36,1080.44 795.51,1080.42 794.68,1080.38 793.82,1079.79">
            <param key="origId" value="1733_-2"/>
        </lane>
        <lane id=":108_2_1" index="1" disallow="pedestrian tram rail_urban rail rail_electric rail_fast ship" speed="13.89" length="3.56" width="3.35" shape="799.39,1078.70 798.93,1077.93 798.99,1077.19 799.07,1076.43 798.68,1075.59">
            <param key="origId" value="1733_-1"/>
        </lane>
    </edge>
    <edge id=":109_0" function="internal">
        <lane id=":109_0_0" index="0" allow="pedestrian" speed="11.11" length="4.22" width="2.80" shape="794.57,1049.24 795.14,1050.29 795.19,1051.20 795.23,1052.11 795.82,1053.15">
            <param key="origId" value="1730_-2"/>
        </lane>
        <lane id=":109_0_1" index="1" disallow="pedestrian tram rail_urban rail rail_electric rail_fast ship" speed="11.11" length="4.22" width="3.35" shape="792.26,1051.28 792.84,1052.33 792.89,1053.25 792.94,1054.16 793.53,1055.20">
            <param key="origId" value="1730_-1"/>
        </lane>
    </edge>
    <edge id=":109_2" function="internal">
        <lane id=":109_2_0" index="0" disallow="pedestrian tram rail_urban rail rail_electric rail_fast ship" speed="12.50" length="4.36" width="3.35" shape="789.75,1053.50 790.74,1054.32 791.61,1054.70 792.39,1055.14 793.14,1056.12">
            <param key="origId" value="1731_-1"/>
        </lane>
    </edge>
    <edge id=":11_0" function="internal">
        <lane id=":11_0_0" index="0" allow="pedestrian" speed="13.89" length="2.98" width="2.80" shape="1122.62,1046.71 1120.50,1044.64">
            <param key="origId" value="1850_-2"/>
            <param key="signalID" value="155"/>
        </lane>
        <lane id=":11_0_1" index="1" disallow="pedestrian tram rail_urban rail rail_electric rail_fast ship" speed="13.89" length="2.98" width="3.35" shape="1124.78,1044.53 1122.64,1042.43">
            <param key="origId" value="1850_-1"/>
            <param key="signalID" value="155"/>
        </lane>
    </edge>
    <edge id=":110_0" function="internal">
        <lane id=":110_0_0" index="0" allow="pedestrian" speed="11.11" length="0.31" width="2.80" shape="665.61,954.73 665.39,954.51">
            <param key="origId" value="1851_-3"/>
        </lane>
        <lane id=":110_0_1" index="1" disallow="pedestrian tram rail_urban rail rail_electric rail_fast ship" speed="11.11" length="0.31" width="3.35" shape="667.78,952.55 667.56,952.33">
            <param key="origId" value="1851_-2"/>
        </lane>
        <lane id=":110_0_2" index="2" disallow="pedestrian tram rail_urban rail rail_electric rail_fast ship" speed="11.11" length="0.31" width="3.35" shape="670.14,950.18 669.92,949.96">
            <param key="origId" value="1851_-1"/>
        </lane>
    </edge>
    <edge id=":111_0" function="internal">
        <lane id=":111_0_0" index="0" allow="pedestrian" speed="13.89" length="13.98" width="2.80" shape="885.05,1169.30 874.85,1159.84">
            <param key="origId" value="1971_-2"/>
        </lane>
        <lane id=":111_0_1" index="1" disallow="pedestrian tram rail_urban rail rail_electric rail_fast ship" speed="13.89" length="13.98" width="3.35" shape="887.18,1167.08 876.87,1157.52">
            <param key="origId" value="1971_-1"/>
        </lane>
    </edge>
    <edge id=":111_2" function="internal">
        <lane id=":111_2_0" index="0" allow="pedestrian" speed="5.51" length="6.42" width="2.80" shape="898.38,1146.64 897.26,1148.35 896.83,1149.86 897.10,1151.17 898.06,1152.29">
            <param key="origId" value="1972_-2"/>
        </lane>
        <lane id=":111_2_1" index="1" disallow="pedestrian tram rail_urban rail rail_electric rail_fast ship" speed="7.20" length="11.44" width="3.35" shape="895.99,1144.71 894.16,1147.60 893.58,1150.24 894.25,1152.61 896.18,1154.72">
            <param key="origId" value="1972_-1"/>
        </lane>
    </edge>
    <edge id=":111_4" function="internal">
        <lane id=":111_4_0" index="0" disallow="pedestrian tram rail_urban rail rail_electric rail_fast ship" speed="10.26" length="21.14" width="3.35" shape="895.99,1144.71 889.54,1151.98 884.21,1156.54 880.18,1158.31">
            <param key="origId" value="1973_-1"/>
        </lane>
    </edge>
    <edge id=":111_8" function="internal">
        <lane id=":111_8_0" index="0" disallow="pedestrian tram rail_urban rail rail_electric rail_fast ship" speed="10.26" length="3.45" width="3.35" shape="880.18,1158.31 879.98,1158.39 876.87,1157.52">
            <param key="origId" value="1973_-1"/>
        </lane>
    </edge>
    <edge id=":111_5" function="internal">
        <lane id=":111_5_0" index="0" allow="pedestrian" speed="11.11" length="12.76" width="2.80" shape="888.45,1144.14 891.19,1146.69 893.11,1148.38 895.11,1149.99 898.06,1152.29">
            <param key="origId" value="1974_-2"/>
        </lane>
        <lane id=":111_5_1" index="1" disallow="pedestrian tram rail_urban rail rail_electric rail_fast ship" speed="11.11" length="12.76" width="3.35" shape="886.34,1146.38 889.14,1148.99 891.11,1150.72 893.15,1152.37 896.18,1154.72">
            <param key="origId" value="1974_-1"/>
        </lane>
    </edge>
    <edge id=":111_7" function="internal">
        <lane id=":111_7_0" index="0" disallow="pedestrian tram rail_urban rail rail_electric rail_fast ship" speed="6.78" length="21.35" width="3.35" shape="886.34,1146.38 888.15,1152.72 887.18,1156.69 883.42,1158.29 876.87,1157.52">
            <param key="origId" value="1975_-1"/>
        </lane>
    </edge>
    <edge id=":112_0" function="internal">
        <lane id=":112_0_0" index="0" allow="pedestrian" speed="11.18" length="9.08" width="2.80" shape="1108.69,606.51 1106.24,605.76 1104.43,605.92 1102.58,606.62 1100.00,607.48">
            <param key="origId" value="1704_-2"/>
        </lane>
        <lane id=":112_0_1" index="1" disallow="pedestrian tram rail_urban rail rail_electric rail_fast ship" speed="12.84" length="11.01" width="3.35" shape="1109.94,603.70 1106.96,602.75 1104.75,602.85 1102.49,603.57 1099.32,604.48">
            <param key="origId" value="1704_-1"/>
        </lane>
    </edge>
    <edge id=":112_2" function="internal">
        <lane id=":112_2_0" index="0" disallow="pedestrian tram rail_urban rail rail_electric rail_fast ship" speed="9.48" length="9.06" width="3.35" shape="1109.94,603.70 1107.59,602.46 1105.75,601.04 1104.41,599.43 1103.56,597.63">
            <param key="origId" value="1705_-1"/>
        </lane>
    </edge>
    <edge id=":113_0" function="internal">
        <lane id=":113_0_0" index="0" allow="pedestrian" speed="10.24" length="10.38" width="2.80" shape="1100.57,598.37 1099.82,595.09 1099.72,592.11 1100.27,589.42 1101.47,587.03">
            <param key="origId" value="1922_-2"/>
        </lane>
        <lane id=":113_0_1" index="1" disallow="pedestrian tram rail_urban rail rail_electric rail_fast ship" speed="9.05" length="10.38" width="3.35" shape="1103.50,597.44 1102.89,594.87 1102.78,592.56 1103.15,590.52 1104.01,588.75">
            <param key="origId" value="1922_-1"/>
        </lane>
    </edge>
    <edge id=":113_2" function="internal">
        <lane id=":113_2_0" index="0" allow="pedestrian" speed="22.22" length="10.93" width="2.80" shape="1094.68,595.00 1096.99,592.91 1098.45,591.34 1099.72,589.61 1101.47,587.03">
            <param key="origId" value="1921_-2"/>
        </lane>
        <lane id=":113_2_1" index="1" disallow="pedestrian tram rail_urban rail rail_electric rail_fast ship" speed="22.22" length="10.93" width="3.35" shape="1096.69,597.32 1099.18,595.08 1100.76,593.40 1102.13,591.54 1104.01,588.75">
            <param key="origId" value="1921_-1"/>
        </lane>
    </edge>
    <edge id=":114_0" function="internal">
        <lane id=":114_0_0" index="0" allow="pedestrian" speed="22.22" length="13.03" width="2.80" shape="1106.22,582.11 1109.40,579.96 1111.34,578.17 1113.07,576.13 1115.67,573.25">
            <param key="origId" value="1712_-2"/>
        </lane>
        <lane id=":114_0_1" index="1" disallow="pedestrian tram rail_urban rail rail_electric rail_fast ship" speed="22.22" length="13.82" width="3.35" shape="1107.81,584.74 1111.20,582.47 1113.26,580.58 1115.12,578.43 1117.88,575.38">
            <param key="origId" value="1712_-1"/>
        </lane>
    </edge>
    <edge id=":114_2" function="internal">
        <lane id=":114_2_0" index="0" disallow="pedestrian tram rail_urban rail rail_electric rail_fast ship" speed="8.68" length="13.17" width="3.35" shape="1107.81,584.74 1111.14,583.23 1114.28,582.85 1117.22,583.59 1119.96,585.47">
            <param key="origId" value="1713_-1"/>
        </lane>
    </edge>
    <edge id=":115_0" function="internal">
        <lane id=":115_0_0" index="0" allow="pedestrian" speed="11.25" length="8.90" width="2.80" shape="1113.79,612.52 1112.68,610.42 1111.91,608.90 1110.85,607.71 1108.87,606.60">
            <param key="origId" value="1846_-2"/>
        </lane>
        <lane id=":115_0_1" index="1" disallow="pedestrian tram rail_urban rail rail_electric rail_fast ship" speed="12.49" length="8.90" width="3.35" shape="1116.44,610.96 1115.04,608.37 1114.00,606.56 1112.61,605.15 1110.12,603.79">
            <param key="origId" value="1846_-1"/>
        </lane>
    </edge>
    <edge id=":115_2" function="internal">
        <lane id=":115_2_0" index="0" allow="pedestrian" speed="9.97" length="7.98" width="2.80" shape="1117.83,606.53 1115.46,607.25 1113.17,607.50 1110.97,607.28 1108.87,606.60">
            <param key="origId" value="1847_-2"/>
        </lane>
        <lane id=":115_2_1" index="1" disallow="pedestrian tram rail_urban rail rail_electric rail_fast ship" speed="8.65" length="7.98" width="3.35" shape="1116.71,603.67 1114.93,604.21 1113.24,604.41 1111.64,604.27 1110.12,603.79">
            <param key="origId" value="1847_-1"/>
        </lane>
    </edge>
    <edge id=":116_0" function="internal">
        <lane id=":116_0_0" index="0" allow="pedestrian" speed="13.89" length="14.42" width="2.80" shape="1153.40,516.44 1151.70,530.76">
            <param key="origId" value="1716_-2"/>
        </lane>
        <lane id=":116_0_1" index="1" disallow="pedestrian tram rail_urban rail rail_electric rail_fast ship" speed="13.89" length="14.42" width="3.35" shape="1150.34,516.14 1148.64,530.46">
            <param key="origId" value="1716_-1"/>
        </lane>
    </edge>
    <edge id=":116_2" function="internal">
        <lane id=":116_2_0" index="0" disallow="pedestrian tram rail_urban rail rail_electric rail_fast ship" speed="6.55" length="9.42" width="3.35" shape="1150.34,516.14 1149.72,518.72 1148.46,520.44 1146.56,521.31 1144.01,521.33">
            <param key="origId" value="1717_-1"/>
        </lane>
    </edge>
    <edge id=":117_0" function="internal">
        <lane id=":117_0_0" index="0" allow="pedestrian" speed="18.05" length="11.10" width="2.80" shape="1126.75,597.01 1126.33,600.15 1126.91,602.37 1127.67,604.63 1127.83,607.88">
            <param key="origId" value="1848_-2"/>
        </lane>
        <lane id=":117_0_1" index="1" disallow="pedestrian tram rail_urban rail rail_electric rail_fast ship" speed="18.05" length="11.65" width="3.35" shape="1123.80,596.13 1123.34,599.44 1123.88,601.77 1124.63,604.15 1124.77,607.57">
            <param key="origId" value="1848_-1"/>
        </lane>
    </edge>
    <edge id=":117_2" function="internal">
        <lane id=":117_2_0" index="0" disallow="pedestrian tram rail_urban rail rail_electric rail_fast ship" speed="9.70" length="10.49" width="3.35" shape="1123.80,596.13 1122.77,598.62 1121.28,600.69 1119.34,602.34 1116.94,603.58">
            <param key="origId" value="1849_-1"/>
        </lane>
    </edge>
    <edge id=":118_0" function="internal">
        <lane id=":118_0_0" index="0" allow="pedestrian" speed="13.89" length="14.13" width="2.80" shape="460.02,916.28 449.98,906.35">
            <param key="origId" value="1784_-2"/>
        </lane>
        <lane id=":118_0_1" index="1" disallow="pedestrian tram rail_urban rail rail_electric rail_fast ship" speed="13.89" length="14.13" width="3.35" shape="462.20,914.10 452.14,904.16">
            <param key="origId" value="1784_-1"/>
        </lane>
    </edge>
    <edge id=":118_2" function="internal">
        <lane id=":118_2_0" index="0" disallow="pedestrian tram rail_urban rail rail_electric rail_fast ship" speed="6.55" length="9.14" width="3.35" shape="462.20,914.10 460.69,912.09 460.18,910.09 460.68,908.09 462.19,906.10">
            <param key="origId" value="1785_-1"/>
        </lane>
    </edge>
    <edge id=":119_0" function="internal">
        <lane id=":119_0_0" index="0" allow="pedestrian" speed="8.05" length="3.75" width="2.80" shape="475.29,900.75 473.17,897.66">
            <param key="origId" value="1782_-2"/>
        </lane>
        <lane id=":119_0_1" index="1" disallow="pedestrian tram rail_urban rail rail_electric rail_fast ship" speed="6.68" length="4.10" width="3.35" shape="477.57,898.69 476.16,896.65 475.77,895.08">
            <param key="origId" value="1782_-1"/>
        </lane>
    </edge>
    <edge id=":119_4" function="internal">