<?xml version="1.0" encoding="UTF-8"?>

<!-- generated on 2024-04-08 16:05:58 by 
<configuration xmlns:xsi="http://www.w3.org/2001/XMLSchema-instance" xsi:noNamespaceSchemaLocation="http://sumo.dlr.de/xsd/Configuration.xsd">

    <input>
        <osm-files value="TRUE"/>
    </input>

    <output>
        <opendrive-output value="TRUE"/>
    </output>

    <projection>
        <proj value="+proj=tmerc"/>
    </projection>

    <processing>
        <geometry.remove value="true"/>
        <roundabouts.guess value="true"/>
        <edges.join value="true"/>
    </processing>

    <building_defaults>
        <default.lanewidth value="3.350000"/>
        <default.sidewalk-width value="2.800000"/>
    </building_defaults>

    <tls_building>
        <tls.group-signals value="true"/>
    </tls_building>

    <ramp_guessing>
        <ramps.guess value="true"/>
    </ramp_guessing>

    <edge_removal>
        <keep-edges.by-type value="highway.motorway,highway.motorway_link,highway.trunk,highway.trunk_link,highway.primary,highway.primary_link,highway.secondary,highway.secondary_link,highway.tertiary,highway.tertiary_link,highway.unclassified,highway.residential,"/>
    </edge_removal>

    <junctions>
        <junctions.join value="true"/>
    </junctions>

    <pedestrian>
        <sidewalks.guess value="true"/>
    </pedestrian>

    <formats>
        <osm.sidewalks value="true"/>
        <osm.crossings value="true"/>
    </formats>

    <report>
        <aggregate-warnings value="5"/>
    </report>

</configuration>
-->

<OpenDRIVE>
    <header revMajor="1" revMinor="4" name="" version="1" date="2019-02-18T13:36:12" north="582.3467482689111" south="592.9132229599825" east="582.4395296625216" west="592.8671036928396">
    <geoReference><![CDATA[+proj=tmerc +lat_0=40.62844751420755 +lon_0=-8.661929556877068 +x_0=0 +y_0=0 +k_0=1.0 +ellps=GRS80 +units=m +no_defs]]></geoReference>
    </header>
    <road name="Rua de Santiago" length="0.20000000" id="1330" junction="-1">
        <type s="0" type="town"/>
        <planView>
            <geometry s="0.00000000" x="627.03514391" y="193.49726645" hdg="-2.76587992" length="0.20000000">
                <line/>
            </geometry>
        </planView>
        <elevationProfile>
            <elevation s="0" a="0.00" b="0" c="0" d="0"/>
        </elevationProfile>
        <lateralProfile/>
        <lanes>
            <laneSection s="0">
                <center>
                    <lane id="0" type="none" level="true">
                        <link/>
                        <roadMark sOffset="0" type="solid" weight="standard" color="standard" width="0.13" laneChange="none"/>
                    </lane>
                </center>
                <right>
                    <lane id="-1" type="sidewalk" level="true">
                        <link/>
                        <width sOffset="0" a="3.20" b="0" c="0" d="0"/>
                        <roadMark sOffset="0" type="solid" weight="standard" color="standard" width="0.13" laneChange="none"/>
                        <speed sOffset="0" max="13.89"/>
                    </lane>
                 </right>
            </laneSection>
        </lanes>
        <objects/>
    </road>
    <road name="Rua 4.ª Companhia Caçadores Especiais" length="140.45429369" id="1331" junction="-1">
        <link>
            <predecessor elementType="junction" elementId="1"/>
            <successor elementType="junction" elementId="2"/>
        </link>
        <type s="0" type="town"/>
        <planView>
            <geometry s="0.00000000" x="1077.39974872" y="788.19071156" hdg="-2.82807419" length="63.48043414">
                <line/>
            </geometry>
            <geometry s="63.48043414" x="1017.01371022" y="768.61287020" hdg="-2.82807419" length="12.19229979">
                <paramPoly3 aU="-0.00000000" bU="13.89000000" cU="-4.69859886" dU="0.00000000" aV="0.00000000" bV="0.00000000" cV="-6.57165937" dV="0.00000000" pRange="normalized"/>
            </geometry>
            <geometry s="75.67273393" x="1006.24360102" y="772.02949275" hdg="2.21369423" length="42.23160182">
                <line/>
            </geometry>
            <geometry s="117.90433575" x="980.92502418" y="805.83005278" hdg="2.21369423" length="13.88779597">
                <paramPoly3 aU="0.00000000" bU="10.41541312" cU="10.41541228" dU="-6.94638986" aV="-0.00000000" bV="0.00000000" cV="0.41701737" dV="-0.13906147" pRange="normalized"/>
            </geometry>
            <geometry s="131.79213172" x="972.37859928" y="816.77598496" hdg="2.25372737" length="8.66216197">
                <line/>
            </geometry>
        </planView>
        <elevationProfile>
            <elevation s="0" a="0.00" b="0" c="0" d="0"/>
        </elevationProfile>
        <lateralProfile/>
        <lanes>
            <laneSection s="0">
                <center>
                    <lane id="0" type="none" level="true">
                        <link/>
                        <roadMark sOffset="0" type="solid" weight="standard" color="standard" width="0.13" laneChange="none"/>
                    </lane>
                </center>
                <right>
                    <lane id="-1" type="driving" level="true">
                        <link/>
                        <width sOffset="0" a="3.35" b="0" c="0" d="0"/>
                        <roadMark sOffset="0" type="solid" weight="standard" color="standard" width="0.13" laneChange="none"/>
                        <speed sOffset="0" max="13.89"/>
                    </lane>
                    <lane id="-2" type="sidewalk" level="true">
                        <link/>
                        <width sOffset="0" a="2.80" b="0" c="0" d="0"/>
                        <roadMark sOffset="0" type="solid" weight="standard" color="standard" width="0.13" laneChange="none"/>
                        <speed sOffset="0" max="13.89"/>
                    </lane>
                 </right>
            </laneSection>
        </lanes>
        <objects/>
    </road>
    <road name="Rua de Santiago" length="0.20000000" id="1332" junction="-1">
        <link>
            <predecessor elementType="junction" elementId="3"/>
        </link>
        <type s="0" type="town"/>
        <planView>
            <geometry s="0.00000000" x="625.07184489" y="198.92906326" hdg="1.03334011" length="0.20000000">
                <line/>
            </geometry>
        </planView>
        <elevationProfile>
            <elevation s="0" a="0.00" b="0" c="0" d="0"/>
        </elevationProfile>
        <lateralProfile/>
        <lanes>
            <laneSection s="0">
                <center>
                    <lane id="0" type="none" level="true">
                        <link/>
                        <roadMark sOffset="0" type="solid" weight="standard" color="standard" width="0.13" laneChange="none"/>
                    </lane>
                </center>
                <right>
                    <lane id="-1" type="sidewalk" level="true">
                        <link/>
                        <width sOffset="0" a="3.20" b="0" c="0" d="0"/>
                        <roadMark sOffset="0" type="solid" weight="standard" color="standard" width="0.13" laneChange="none"/>
                        <speed sOffset="0" max="13.89"/>
                    </lane>
                 </right>
            </laneSection>
        </lanes>
        <objects/>
    </road>
    <road name="Rua Castro Matoso" length="44.95203348" id="1333" junction="-1">
        <link>
            <predecessor elementType="junction" elementId="4"/>
        </link>
        <type s="0" type="town"/>
        <planView>
            <geometry s="0.00000000" x="995.56547107" y="916.82639891" hdg="0.56951780" length="9.17285985">
                <line/>
            </geometry>
            <geometry s="9.17285985" x="1003.29049669" y="921.77264364" hdg="0.52761952" length="35.77917363">
                <line/>
            </geometry>
        </planView>
        <elevationProfile>
            <elevation s="0" a="0.00" b="0" c="0" d="0"/>
        </elevationProfile>
        <lateralProfile/>
        <lanes>
            <laneSection s="0">
                <center>
                    <lane id="0" type="none" level="true">
                        <link/>
                        <roadMark sOffset="0" type="solid" weight="standard" color="standard" width="0.13" laneChange="none"/>
                    </lane>
                </center>
                <right>
                    <lane id="-1" type="sidewalk" level="true">
                        <link/>
                        <width sOffset="0" a="3.20" b="0" c="0" d="0"/>
                        <roadMark sOffset="0" type="solid" weight="standard" color="standard" width="0.13" laneChange="none"/>
                        <speed sOffset="0" max="13.89"/>
                    </lane>
                 </right>
            </laneSection>
        </lanes>
        <objects/>
    </road>
    <road name="Rua José Joaquim Lopes de Lima" length="290.03826858" id="1334" junction="-1">
        <link>
            <predecessor elementType="junction" elementId="5"/>
            <successor elementType="junction" elementId="6"/>
        </link>
        <type s="0" type="town"/>
        <planView>
            <geometry s="0.00000000" x="1214.67987973" y="830.52356392" hdg="-2.44420344" length="0.20000000">
                <line/>
            </geometry>
            <geometry s="0.20000000" x="1214.52657543" y="830.39512019" hdg="-2.44420344" length="9.21630074">
                <paramPoly3 aU="-0.00000000" bU="6.91222555" cU="6.91222535" dU="-4.60815027" aV="0.00000000" bV="-0.00000000" cV="0.00292670" dV="-0.00154622" pRange="normalized"/>
            </geometry>
            <geometry s="9.41630074" x="1207.46296950" y="824.47518181" hdg="-2.44402770" length="10.38230774">
                <paramPoly3 aU="-0.00000000" bU="7.78650326" cU="7.78929689" dU="-5.19379580" aV="0.00000000" bV="-0.00000000" cV="0.20927783" dV="-0.20903867" pRange="normalized"/>
            </geometry>
            <geometry s="19.79860849" x="1199.50626552" y="817.80608321" hdg="-2.47081576" length="7.21839609">
                <paramPoly3 aU="-0.00000000" bU="5.41258427" cU="5.41945798" dU="-3.62063200" aV="0.00000000" bV="0.00000000" cV="-0.33672693" dV="0.05840740" pRange="normalized"/>
            </geometry>
            <geometry s="27.01700458" x="1193.68428475" y="813.54152702" hdg="-2.56299686" length="31.79409758">
                <line/>
            </geometry>
            <geometry s="58.81110215" x="1167.06526910" y="796.15496191" hdg="-2.56299686" length="13.88999987">
                <paramPoly3 aU="-0.00000000" bU="10.41749989" cU="10.41749961" dU="-6.94499979" aV="0.00000000" bV="0.00000000" cV="-0.00423988" dV="0.00225818" pRange="normalized"/>
            </geometry>
            <geometry s="72.70110203" x="1155.43504201" y="788.56089094" hdg="-2.56316055" length="2.39971746">
                <paramPoly3 aU="-0.00000000" bU="1.79978241" cU="1.79985362" dU="-1.19992616" aV="0.00000000" bV="-0.00000000" cV="0.01513964" dV="-0.01543157" pRange="normalized"/>
            </geometry>
            <geometry s="75.10081949" x="1153.42555527" y="787.24918574" hdg="-2.57205921" length="13.88927125">
                <paramPoly3 aU="-0.00000000" bU="10.41694811" cU="10.41699764" dU="-6.94469758" aV="0.00000000" bV="-0.00000000" cV="-0.01813033" dV="-0.00293167" pRange="normalized"/>
            </geometry>
            <geometry s="88.99009073" x="1141.71733064" y="779.77729611" hdg="-2.57638445" length="5.26156683">
                <paramPoly3 aU="-0.00000000" bU="3.90929242" cU="4.36570934" dU="-3.06275786" aV="0.00000000" bV="-0.00000000" cV="-1.95095158" dV="1.91193923" pRange="normalized"/>
            </geometry>
            <geometry s="94.25165756" x="1137.29481530" y="777.01860682" hdg="-2.08809408" length="10.56422023">
                <paramPoly3 aU="-0.00000000" bU="16.61075044" cU="-6.65681067" dU="0.00000000" aV="0.00000000" bV="0.00000000" cV="2.47960409" dV="0.00000000" pRange="normalized"/>
            </geometry>
            <geometry s="104.81587778" x="1134.52743048" y="767.14080673" hdg="-1.10404154" length="19.26054225">
                <line/>
            </geometry>
            <geometry s="124.07642003" x="1143.19449294" y="749.94050103" hdg="-1.10404154" length="13.88999666">
                <paramPoly3 aU="0.00000000" bU="10.41749683" cU="10.41749683" dU="-6.94500211" aV="0.00000000" bV="0.00000000" cV="0.01624696" dV="-0.00541566" pRange="normalized"/>
            </geometry>
            <geometry s="137.96641669" x="1149.45453092" y="737.54114995" hdg="-1.10248196" length="66.15279427">
                <line/>
            </geometry>
            <geometry s="204.11921096" x="1179.31476350" y="678.51099918" hdg="-1.10248196" length="13.88929411">
                <paramPoly3 aU="0.00000000" bU="10.41690383" cU="10.41568018" dU="-6.94417376" aV="0.00000000" bV="0.00000000" cV="0.29025611" dV="-0.14166598" pRange="normalized"/>
            </geometry>
            <geometry s="218.00850506" x="1185.71634431" y="666.18501924" hdg="-1.08755237" length="9.08685340">
                <paramPoly3 aU="0.00000000" bU="6.81512100" cU="6.81455320" dU="-4.54303623" aV="0.00000000" bV="-0.00000000" cV="0.18190132" dV="-0.12313436" pRange="normalized"/>
            </geometry>
            <geometry s="227.09535847" x="1189.99052569" y="658.16617789" hdg="-1.08837414" length="12.38670250">
                <paramPoly3 aU="0.00000000" bU="9.11500821" cU="11.42300128" dU="-8.38484570" aV="0.00000000" bV="0.00000000" cV="5.86391204" dV="-5.93014608" pRange="normalized"/>
            </geometry>
            <geometry s="239.48206096" x="1195.57002282" y="647.36928070" hdg="-1.81603451" length="13.50801394">
                <paramPoly3 aU="-0.00000000" bU="9.97391023" cU="3.90586289" dU="-3.28224041" aV="0.00000000" bV="-0.00000000" cV="-18.06412719" dV="10.03022078" pRange="normalized"/>
            </geometry>
            <geometry s="252.99007490" x="1185.20354741" y="639.03936238" hdg="-2.46622560" length="37.04819368">
                <line/>
            </geometry>
        </planView>
        <elevationProfile>
            <elevation s="0" a="0.00" b="0" c="0" d="0"/>
        </elevationProfile>
        <lateralProfile/>
        <lanes>
            <laneSection s="0">
                <center>
                    <lane id="0" type="none" level="true">
                        <link/>
                        <roadMark sOffset="0" type="solid" weight="standard" color="standard" width="0.13" laneChange="none"/>
                    </lane>
                </center>
                <right>
                    <lane id="-1" type="driving" level="true">
                        <link/>
                        <width sOffset="0" a="3.35" b="0" c="0" d="0"/>
                        <roadMark sOffset="0" type="solid" weight="standard" color="standard" width="0.13" laneChange="none"/>
                        <speed sOffset="0" max="13.89"/>
                    </lane>
                    <lane id="-2" type="sidewalk" level="true">
                        <link/>
                        <width sOffset="0" a="2.80" b="0" c="0" d="0"/>
                        <roadMark sOffset="0" type="solid" weight="standard" color="standard" width="0.13" laneChange="none"/>
                        <speed sOffset="0" max="13.89"/>
                    </lane>
                 </right>
            </laneSection>
        </lanes>
        <objects/>
    </road>
    <road name="Travessa de São Martinho" length="90.22592192" id="1335" junction="-1">
        <link>
            <predecessor elementType="junction" elementId="7"/>
        </link>
        <type s="0" type="town"/>
        <planView>
            <geometry s="0.00000000" x="1142.74920695" y="994.81820679" hdg="-2.48119518" length="2.40450432">
                <line/>
            </geometry>
            <geometry s="2.40450432" x="1140.85025334" y="993.34320977" hdg="-2.45900532" length="21.84071038">
                <line/>
            </geometry>
            <geometry s="24.24521470" x="1123.90310221" y="979.56602942" hdg="-2.44560185" length="8.36370315">
                <line/>
            </geometry>
            <geometry s="32.60891785" x="1117.48463892" y="974.20367365" hdg="-1.19733566" length="33.02326986">
                <line/>
            </geometry>
            <geometry s="65.63218772" x="1129.53283995" y="943.45668673" hdg="-2.36955391" length="24.59373421">
                <line/>
            </geometry>
        </planView>
        <elevationProfile>
            <elevation s="0" a="0.00" b="0" c="0" d="0"/>
        </elevationProfile>
        <lateralProfile/>
        <lanes>
            <laneSection s="0">
                <center>
                    <lane id="0" type="none" level="true">
                        <link/>
                        <roadMark sOffset="0" type="solid" weight="standard" color="standard" width="0.13" laneChange="none"/>
                    </lane>
                </center>
                <right>
                    <lane id="-1" type="sidewalk" level="true">
                        <link/>
                        <width sOffset="0" a="3.20" b="0" c="0" d="0"/>
                        <roadMark sOffset="0" type="solid" weight="standard" color="standard" width="0.13" laneChange="none"/>
                        <speed sOffset="0" max="13.89"/>
                    </lane>
                 </right>
            </laneSection>
        </lanes>
        <objects/>
    </road>
    <road name="" length="11.75197957" id="1336" junction="-1">
        <link>
            <predecessor elementType="junction" elementId="8"/>
        </link>
        <type s="0" type="town"/>
        <planView>
            <geometry s="0.00000000" x="1166.62466968" y="506.14191751" hdg="-2.93479947" length="11.75197957">
                <line/>
            </geometry>
        </planView>
        <elevationProfile>
            <elevation s="0" a="0.00" b="0" c="0" d="0"/>
        </elevationProfile>
        <lateralProfile/>
        <lanes>
            <laneSection s="0">
                <center>
                    <lane id="0" type="none" level="true">
                        <link/>
                        <roadMark sOffset="0" type="solid" weight="standard" color="standard" width="0.13" laneChange="none"/>
                    </lane>
                </center>
                <right>
                    <lane id="-1" type="sidewalk" level="true">
                        <link/>
                        <width sOffset="0" a="3.20" b="0" c="0" d="0"/>
                        <roadMark sOffset="0" type="solid" weight="standard" color="standard" width="0.13" laneChange="none"/>
                        <speed sOffset="0" max="13.89"/>
                    </lane>
                 </right>
            </laneSection>
        </lanes>
        <objects/>
    </road>
    <road name="" length="11.95319864" id="1337" junction="-1">
        <link>
            <predecessor elementType="junction" elementId="9"/>
        </link>
        <type s="0" type="town"/>
        <planView>
            <geometry s="0.00000000" x="1186.13698693" y="512.18721614" hdg="-2.82496948" length="11.95319864">
                <line/>
            </geometry>
        </planView>
        <elevationProfile>
            <elevation s="0" a="0.00" b="0" c="0" d="0"/>
        </elevationProfile>
        <lateralProfile/>
        <lanes>
            <laneSection s="0">
                <center>
                    <lane id="0" type="none" level="true">
                        <link/>
                        <roadMark sOffset="0" type="solid" weight="standard" color="standard" width="0.13" laneChange="none"/>
                    </lane>
                </center>
                <right>
                    <lane id="-1" type="sidewalk" level="true">
                        <link/>
                        <width sOffset="0" a="3.20" b="0" c="0" d="0"/>
                        <roadMark sOffset="0" type="solid" weight="standard" color="standard" width="0.13" laneChange="none"/>
                        <speed sOffset="0" max="13.89"/>
                    </lane>
                 </right>
            </laneSection>
        </lanes>
        <objects/>
    </road>
    <road name="Rua da Associação Humanitária dos Bombeiros Voluntários de Aveiro" length="20.46170033" id="1338" junction="-1">
        <link>
            <predecessor elementType="junction" elementId="10"/>
        </link>
        <type s="0" type="town"/>
        <planView>
            <geometry s="0.00000000" x="1122.90310397" y="390.53314220" hdg="0.41588423" length="20.46170033">
                <line/>
            </geometry>
        </planView>
        <elevationProfile>
            <elevation s="0" a="0.00" b="0" c="0" d="0"/>
        </elevationProfile>
        <lateralProfile/>
        <lanes>
            <laneSection s="0">
                <center>
                    <lane id="0" type="none" level="true">
                        <link/>
                        <roadMark sOffset="0" type="solid" weight="standard" color="standard" width="0.13" laneChange="none"/>
                    </lane>
                </center>
                <right>
                    <lane id="-1" type="sidewalk" level="true">
                        <link/>
                        <width sOffset="0" a="3.20" b="0" c="0" d="0"/>
                        <roadMark sOffset="0" type="solid" weight="standard" color="standard" width="0.13" laneChange="none"/>
                        <speed sOffset="0" max="13.89"/>
                    </lane>
                 </right>
            </laneSection>
        </lanes>
        <objects/>
    </road>
    <road name="Rua Infante Dom Henrique" length="7.93427023" id="1339" junction="-1">
        <link>
            <predecessor elementType="junction" elementId="11"/>
        </link>
        <type s="0" type="town"/>
        <planView>
            <geometry s="0.00000000" x="1191.14774852" y="931.67749388" hdg="0.68328689" length="7.93427023">
                <line/>
            </geometry>
        </planView>
        <elevationProfile>
            <elevation s="0" a="0.00" b="0" c="0" d="0"/>
        </elevationProfile>
        <lateralProfile/>
        <lanes>
            <laneSection s="0">
                <center>
                    <lane id="0" type="none" level="true">
                        <link/>
                        <roadMark sOffset="0" type="solid" weight="standard" color="standard" width="0.13" laneChange="none"/>
                    </lane>
                </center>
                <right>
                    <lane id="-1" type="sidewalk" level="true">
                        <link/>
                        <width sOffset="0" a="3.20" b="0" c="0" d="0"/>
                        <roadMark sOffset="0" type="solid" weight="standard" color="standard" width="0.13" laneChange="none"/>
                        <speed sOffset="0" max="13.89"/>
                    </lane>
                 </right>
            </laneSection>
        </lanes>
        <objects/>
    </road>
    <road name="Rua Infante Dom Henrique" length="48.63478398" id="1340" junction="-1">
        <type s="0" type="town"/>
        <planView>
            <geometry s="0.00000000" x="1152.84744740" y="901.20286625" hdg="0.67206317" length="48.63478398">
                <line/>
            </geometry>
        </planView>
        <elevationProfile>
            <elevation s="0" a="0.00" b="0" c="0" d="0"/>
        </elevationProfile>
        <lateralProfile/>
        <lanes>
            <laneSection s="0">
                <center>
                    <lane id="0" type="none" level="true">
                        <link/>
                        <roadMark sOffset="0" type="solid" weight="standard" color="standard" width="0.13" laneChange="none"/>
                    </lane>
                </center>
                <right>
                    <lane id="-1" type="sidewalk" level="true">
                        <link/>
                        <width sOffset="0" a="3.20" b="0" c="0" d="0"/>
                        <roadMark sOffset="0" type="solid" weight="standard" color="standard" width="0.13" laneChange="none"/>
                        <speed sOffset="0" max="13.89"/>
                    </lane>
                 </right>
            </laneSection>
        </lanes>
        <objects/>
    </road>
    <road name="Rua do Sport Clube Beira-Mar" length="202.84643230" id="1341" junction="-1">
        <link>
            <predecessor elementType="junction" elementId="12"/>
        </link>
        <type s="0" type="town"/>
        <planView>
            <geometry s="0.00000000" x="728.85117078" y="512.20754709" hdg="1.95214295" length="36.21876825">
                <line/>
            </geometry>
            <geometry s="36.21876825" x="715.37160671" y="545.82451493" hdg="2.14981406" length="21.75499789">
                <line/>
            </geometry>
            <geometry s="57.97376615" x="703.46722750" y="564.03346022" hdg="-2.88054509" length="51.42532548">
                <line/>
            </geometry>
            <geometry s="109.39909162" x="653.78418482" y="550.76095590" hdg="-2.88480906" length="66.62333744">
                <line/>
            </geometry>
            <geometry s="176.02242906" x="589.34530311" y="533.84056539" hdg="-2.90368221" length="26.82400323">
                <line/>
            </geometry>
        </planView>
        <elevationProfile>
            <elevation s="0" a="0.00" b="0" c="0" d="0"/>
        </elevationProfile>
        <lateralProfile/>
        <lanes>
            <laneSection s="0">
                <center>
                    <lane id="0" type="none" level="true">
                        <link/>
                        <roadMark sOffset="0" type="solid" weight="standard" color="standard" width="0.13" laneChange="none"/>
                    </lane>
                </center>
                <right>
                    <lane id="-1" type="sidewalk" level="true">
                        <link/>
                        <width sOffset="0" a="3.20" b="0" c="0" d="0"/>
                        <roadMark sOffset="0" type="solid" weight="standard" color="standard" width="0.13" laneChange="none"/>
                        <speed sOffset="0" max="13.89"/>
                    </lane>
                 </right>
            </laneSection>
        </lanes>
        <objects/>
    </road>
    <road name="Rua do Sport Clube Beira-Mar" length="67.88083109" id="1342" junction="-1">
        <link>
            <predecessor elementType="junction" elementId="13"/>
        </link>
        <type s="0" type="town"/>
        <planView>
            <geometry s="0.00000000" x="760.81612372" y="435.29769740" hdg="1.96643664" length="67.88083109">
                <line/>
            </geometry>
        </planView>
        <elevationProfile>
            <elevation s="0" a="0.00" b="0" c="0" d="0"/>
        </elevationProfile>
        <lateralProfile/>
        <lanes>
            <laneSection s="0">
                <center>
                    <lane id="0" type="none" level="true">
                        <link/>
                        <roadMark sOffset="0" type="solid" weight="standard" color="standard" width="0.13" laneChange="none"/>
                    </lane>
                </center>
                <right>
                    <lane id="-1" type="sidewalk" level="true">
                        <link/>
                        <width sOffset="0" a="3.20" b="0" c="0" d="0"/>
                        <roadMark sOffset="0" type="solid" weight="standard" color="standard" width="0.13" laneChange="none"/>
                        <speed sOffset="0" max="13.89"/>
                    </lane>
                 </right>
            </laneSection>
        </lanes>
        <objects/>
    </road>
    <road name="Rua Bernardo Torres" length="97.89529933" id="1343" junction="-1">
        <link>
            <predecessor elementType="junction" elementId="14"/>
        </link>
        <type s="0" type="town"/>
        <planView>
            <geometry s="0.00000000" x="1126.60812580" y="646.98733436" hdg="-2.67378104" length="97.89529933">
                <line/>
            </geometry>
        </planView>
        <elevationProfile>
            <elevation s="0" a="0.00" b="0" c="0" d="0"/>
        </elevationProfile>
        <lateralProfile/>
        <lanes>
            <laneSection s="0">
                <center>
                    <lane id="0" type="none" level="true">
                        <link/>
                        <roadMark sOffset="0" type="solid" weight="standard" color="standard" width="0.13" laneChange="none"/>
                    </lane>
                </center>
                <right>
                    <lane id="-1" type="sidewalk" level="true">
                        <link/>
                        <width sOffset="0" a="3.20" b="0" c="0" d="0"/>
                        <roadMark sOffset="0" type="solid" weight="standard" color="standard" width="0.13" laneChange="none"/>
                        <speed sOffset="0" max="13.89"/>
                    </lane>
                 </right>
            </laneSection>
        </lanes>
        <objects/>
    </road>
    <road name="Rua Doutor Francisco Vale Guimarães" length="113.45906837" id="1344" junction="-1">
        <link>
            <predecessor elementType="junction" elementId="15"/>
            <successor elementType="junction" elementId="16"/>
        </link>
        <type s="0" type="town"/>
        <planView>
            <geometry s="0.00000000" x="911.49057027" y="957.17696544" hdg="-2.47033331" length="33.64603110">
                <line/>
            </geometry>