<?xml version="1.0" encoding="UTF-8"?>

<routes xmlns:xsi="http://www.w3.org/2001/XMLSchema-instance" xsi:noNamespaceSchemaLocation="http://sumo.dlr.de/xsd/routes_file.xsd">
    <vehicle id="0" type="vehicle.audi.a2" depart="3.00">
        <route edges="-1545 -1422"/>
    </vehicle>

    <vehicle id="1" type="vehicle.audi.a2" depart="5.00">
        <route edges="-1473 -1485"/>
    </vehicle>
</routes>



