<?xml version="1.0" encoding="UTF-8"?>

<!-- generated on 2024-04-08 16:32:59 by Eclipse SUMO netconvert Version 1.12.0
<configuration xmlns:xsi="http://www.w3.org/2001/XMLSchema-instance" xsi:noNamespaceSchemaLocation="http://sumo.dlr.de/xsd/netconvertConfiguration.xsd">

    <input>
        <osm-files value="map-clean.osm"/>
    </input>

    <output>
        <output-file value="simple-map.net.xml"/>
    </output>

    <projection>
        <proj.utm value="true"/>
    </projection>

    <report>
        <aggregate-warnings value="5"/>
    </report>

</configuration>
-->

<net version="1.9" junctionCornerDetail="5" limitTurnSpeed="5.50" xmlns:xsi="http://www.w3.org/2001/XMLSchema-instance" xsi:noNamespaceSchemaLocation="http://sumo.dlr.de/xsd/net_file.xsd">

    <location netOffset="-528589.88,-4497568.01" convBoundary="0.00,0.00,1163.50,1188.52" origBoundary="-8.661930,40.628448,-8.648162,40.639126" projParameter="+proj=utm +zone=29 +ellps=WGS84 +datum=WGS84 +units=m +no_defs"/>

    <type id="highway.bridleway" priority="1" numLanes="1" speed="2.78" allow="pedestrian" oneway="1" width="2.00"/>
    <type id="highway.bus_guideway" priority="1" numLanes="1" speed="27.78" allow="bus" oneway="1"/>
    <type id="highway.cycleway" priority="1" numLanes="1" speed="8.33" allow="bicycle" oneway="0" width="1.00"/>
    <type id="highway.footway" priority="1" numLanes="1" speed="2.78" allow="pedestrian" oneway="1" width="2.00"/>
    <type id="highway.ford" priority="1" numLanes="1" speed="2.78" allow="army" oneway="0"/>
    <type id="highway.living_street" priority="2" numLanes="1" speed="2.78" disallow="tram rail_urban rail rail_electric rail_fast ship" oneway="0"/>
    <type id="highway.motorway" priority="14" numLanes="2" speed="39.44" allow="private emergency authority army vip passenger hov taxi bus coach delivery truck trailer motorcycle evehicle custom1 custom2" oneway="1"/>
    <type id="highway.motorway_link" priority="9" numLanes="1" speed="22.22" allow="private emergency authority army vip passenger hov taxi bus coach delivery truck trailer motorcycle evehicle custom1 custom2" oneway="1"/>
    <type id="highway.path" priority="1" numLanes="1" speed="2.78" allow="pedestrian bicycle" oneway="0" width="2.00"/>
    <type id="highway.pedestrian" priority="1" numLanes="1" speed="2.78" allow="pedestrian" oneway="1" width="2.00"/>
    <type id="highway.primary" priority="12" numLanes="2" speed="27.78" disallow="tram rail_urban rail rail_electric rail_fast ship" oneway="0"/>
    <type id="highway.primary_link" priority="7" numLanes="1" speed="22.22" disallow="tram rail_urban rail rail_electric rail_fast ship" oneway="0"/>
    <type id="highway.raceway" priority="15" numLanes="2" speed="83.33" allow="vip" oneway="0"/>
    <type id="highway.residential" priority="3" numLanes="1" speed="13.89" disallow="tram rail_urban rail rail_electric rail_fast ship" oneway="0"/>
    <type id="highway.secondary" priority="11" numLanes="1" speed="27.78" disallow="tram rail_urban rail rail_electric rail_fast ship" oneway="0"/>
    <type id="highway.secondary_link" priority="6" numLanes="1" speed="22.22" disallow="tram rail_urban rail rail_electric rail_fast ship" oneway="0"/>
    <type id="highway.service" priority="1" numLanes="1" speed="5.56" allow="pedestrian delivery bicycle" oneway="0"/>
    <type id="highway.stairs" priority="1" numLanes="1" speed="1.39" allow="pedestrian" oneway="1" width="2.00"/>
    <type id="highway.step" priority="1" numLanes="1" speed="1.39" allow="pedestrian" oneway="1" width="2.00"/>
    <type id="highway.steps" priority="1" numLanes="1" speed="1.39" allow="pedestrian" oneway="1" width="2.00"/>
    <type id="highway.tertiary" priority="10" numLanes="1" speed="22.22" disallow="tram rail_urban rail rail_electric rail_fast ship" oneway="0"/>
    <type id="highway.tertiary_link" priority="5" numLanes="1" speed="22.22" disallow="tram rail_urban rail rail_electric rail_fast ship" oneway="0"/>
    <type id="highway.track" priority="1" numLanes="1" speed="5.56" allow="pedestrian motorcycle moped bicycle" oneway="0"/>
    <type id="highway.trunk" priority="13" numLanes="2" speed="27.78" disallow="pedestrian bicycle tram rail_urban rail rail_electric rail_fast ship" oneway="0"/>
    <type id="highway.trunk_link" priority="8" numLanes="1" speed="22.22" disallow="pedestrian bicycle tram rail_urban rail rail_electric rail_fast ship" oneway="0"/>
    <type id="highway.unclassified" priority="4" numLanes="1" speed="13.89" disallow="tram rail_urban rail rail_electric rail_fast ship" oneway="0"/>
    <type id="highway.unsurfaced" priority="1" numLanes="1" speed="8.33" disallow="tram rail_urban rail rail_electric rail_fast ship" oneway="0"/>
    <type id="railway.highspeed" priority="21" numLanes="1" speed="69.44" allow="rail_fast" oneway="1"/>
    <type id="railway.light_rail" priority="19" numLanes="1" speed="27.78" allow="rail_urban" oneway="1"/>
    <type id="railway.preserved" priority="16" numLanes="1" speed="27.78" allow="rail" oneway="1"/>
    <type id="railway.rail" priority="20" numLanes="1" speed="44.44" allow="rail" oneway="1"/>
    <type id="railway.subway" priority="18" numLanes="1" speed="27.78" allow="rail_urban" oneway="1"/>
    <type id="railway.tram" priority="17" numLanes="1" speed="13.89" allow="tram" oneway="1"/>

    <edge id=":10002075834_0" function="internal">
        <lane id=":10002075834_0_0" index="0" disallow="tram rail_urban rail rail_electric rail_fast ship" speed="20.84" length="6.57" shape="274.79,1043.08 275.21,1041.21 275.24,1039.88 275.05,1038.53 274.87,1036.58"/>
    </edge>
    <edge id=":10002075834_1" function="internal">
        <lane id=":10002075834_1_0" index="0" disallow="tram rail_urban rail rail_electric rail_fast ship" speed="7.42" length="6.41" shape="274.79,1043.08 275.45,1041.43 276.35,1040.11 277.49,1039.12 278.87,1038.46"/>
    </edge>
    <edge id=":10002075838_0" function="internal">
        <lane id=":10002075838_0_0" index="0" disallow="tram rail_urban rail rail_electric rail_fast ship" speed="8.64" length="5.21" shape="280.74,1034.52 281.53,1035.87 282.08,1036.87 282.80,1037.61 284.14,1038.21"/>
    </edge>
    <edge id=":10002075838_1" function="internal">
        <lane id=":10002075838_1_0" index="0" disallow="tram rail_urban rail rail_electric rail_fast ship" speed="9.15" length="5.24" shape="279.06,1038.40 280.53,1037.92 281.60,1037.72 282.67,1037.81 284.14,1038.21"/>
    </edge>
    <edge id=":10002075839_0" function="internal">
        <lane id=":10002075839_0_0" index="0" disallow="tram rail_urban rail rail_electric rail_fast ship" speed="14.89" length="6.13" shape="284.34,1038.27 286.07,1038.66 287.30,1038.60 288.56,1038.30 290.36,1037.99"/>
    </edge>
    <edge id=":10002075839_1" function="internal">
        <lane id=":10002075839_1_0" index="0" disallow="tram rail_urban rail rail_electric rail_fast ship" speed="7.22" length="5.90" shape="284.34,1038.27 285.89,1038.91 287.13,1039.74 288.05,1040.76 288.65,1041.97"/>
    </edge>
    <edge id=":10002075840_0" function="internal">
        <lane id=":10002075840_0_0" index="0" disallow="tram rail_urban rail rail_electric rail_fast ship" speed="10.58" length="5.04" shape="292.37,1043.74 291.18,1044.67 290.31,1045.30 289.64,1046.06 289.05,1047.38"/>
    </edge>
    <edge id=":10002075840_1" function="internal">
        <lane id=":10002075840_1_0" index="0" disallow="tram rail_urban rail rail_electric rail_fast ship" speed="9.03" length="5.40" shape="288.71,1042.16 289.24,1043.67 289.51,1044.77 289.47,1045.87 289.05,1047.38"/>
    </edge>
    <edge id=":10002075841_0" function="internal">
        <lane id=":10002075841_0_0" index="0" disallow="tram rail_urban rail rail_electric rail_fast ship" speed="8.02" length="5.52" shape="288.99,1047.57 288.69,1049.09 288.94,1050.16 289.55,1051.21 290.37,1052.65"/>
    </edge>
    <edge id=":10002075841_1" function="internal">
        <lane id=":10002075841_1_0" index="0" disallow="tram rail_urban rail rail_electric rail_fast ship" speed="8.06" length="4.77" shape="288.99,1047.57 288.54,1048.91 288.11,1049.81 287.45,1050.53 286.30,1051.32"/>
    </edge>
    <edge id=":10002075844_0" function="internal">
        <lane id=":10002075844_0_0" index="0" disallow="tram rail_urban rail rail_electric rail_fast ship" speed="13.96" length="6.21" shape="286.39,1055.55 284.89,1054.46 283.86,1053.64 282.75,1053.07 281.00,1052.68"/>
    </edge>
    <edge id=":10002075844_1" function="internal">
        <lane id=":10002075844_1_0" index="0" disallow="tram rail_urban rail rail_electric rail_fast ship" speed="8.68" length="5.47" shape="286.13,1051.42 284.75,1052.25 283.70,1052.70 282.59,1052.83 281.00,1052.68"/>
    </edge>
    <edge id=":10002075845_0" function="internal">
        <lane id=":10002075845_0_0" index="0" disallow="tram rail_urban rail rail_electric rail_fast ship" speed="15.21" length="6.29" shape="280.80,1052.65 278.98,1052.56 277.73,1052.81 276.51,1053.29 274.74,1053.91"/>
    </edge>
    <edge id=":10002075845_1" function="internal">
        <lane id=":10002075845_1_0" index="0" disallow="tram rail_urban rail rail_electric rail_fast ship" speed="6.95" length="6.17" shape="280.80,1052.65 278.95,1052.27 277.47,1051.65 276.39,1050.79 275.68,1049.71"/>
    </edge>
    <edge id=":10002075852_0" function="internal">
        <lane id=":10002075852_0_0" index="0" disallow="tram rail_urban rail rail_electric rail_fast ship" speed="9.35" length="6.55" shape="275.60,1049.52 274.81,1047.75 274.36,1046.44 274.31,1045.11 274.73,1043.27"/>
    </edge>
    <edge id=":10002075852_1" function="internal">
        <lane id=":10002075852_1_0" index="0" disallow="tram rail_urban rail rail_electric rail_fast ship" speed="27.78" length="6.73" shape="271.32,1049.01 272.50,1047.39 273.36,1046.30 274.05,1045.12 274.73,1043.27"/>
    </edge>
    <edge id=":10002075853_0" function="internal">
        <lane id=":10002075853_0_0" index="0" disallow="tram rail_urban rail rail_electric rail_fast ship" speed="27.78" length="5.56" shape="273.69,1054.22 272.13,1054.73 271.11,1055.22 270.15,1055.84 268.77,1056.75"/>
    </edge>
    <edge id=":10002075853_1" function="internal">
        <lane id=":10002075853_1_0" index="0" disallow="tram rail_urban rail rail_electric rail_fast ship" speed="4.99" length="3.61" shape="273.69,1054.22 270.73,1054.83 270.15,1054.73"/>
    </edge>
    <edge id=":10002075853_4" function="internal">
        <lane id=":10002075853_4_0" index="0" disallow="tram rail_urban rail rail_electric rail_fast ship" speed="4.99" length="4.50" shape="270.15,1054.73 269.08,1054.56 268.74,1053.43 269.72,1051.42"/>
    </edge>
    <edge id=":10002075853_2" function="internal">
        <lane id=":10002075853_2_0" index="0" disallow="tram rail_urban rail rail_electric rail_fast ship" speed="11.59" length="3.77" shape="267.07,1054.04 268.00,1053.43 268.59,1052.94 269.09,1052.34 269.72,1051.42"/>
    </edge>
    <edge id=":10002075853_3" function="internal">
        <lane id=":10002075853_3_0" index="0" disallow="tram rail_urban rail rail_electric rail_fast ship" speed="3.65" length="1.44" shape="267.07,1054.04 268.51,1054.07"/>
    </edge>
    <edge id=":10002075853_5" function="internal">
        <lane id=":10002075853_5_0" index="0" disallow="tram rail_urban rail rail_electric rail_fast ship" speed="3.65" length="3.23" shape="268.51,1054.07 269.27,1054.54 269.36,1055.43 268.77,1056.75"/>
    </edge>
    <edge id=":10002075854_0" function="internal">
        <lane id=":10002075854_0_0" index="0" disallow="tram rail_urban rail rail_electric rail_fast ship" speed="20.83" length="8.41" shape="299.56,1039.06 297.40,1040.31 295.88,1041.11 294.43,1042.03 292.52,1043.60"/>
    </edge>
    <edge id=":10002075854_1" function="internal">
        <lane id=":10002075854_1_0" index="0" disallow="tram rail_urban rail rail_electric rail_fast ship" speed="3.65" length="1.44" shape="299.56,1039.06 298.12,1039.01"/>
    </edge>
    <edge id=":10002075854_4" function="internal">
        <lane id=":10002075854_4_0" index="0" disallow="tram rail_urban rail rail_electric rail_fast ship" speed="3.65" length="3.23" shape="298.12,1039.01 297.36,1038.54 297.28,1037.65 297.88,1036.34"/>
    </edge>
    <edge id=":10002075854_2" function="internal">
        <lane id=":10002075854_2_0" index="0" disallow="tram rail_urban rail rail_electric rail_fast ship" speed="12.08" length="4.59" shape="293.55,1037.63 294.90,1037.49 295.84,1037.33 296.71,1037.01 297.88,1036.34"/>
    </edge>
    <edge id=":10002075854_3" function="internal">
        <lane id=":10002075854_3_0" index="0" disallow="tram rail_urban rail rail_electric rail_fast ship" speed="5.34" length="3.35" shape="293.55,1037.63 295.91,1037.72 296.42,1038.56"/>
    </edge>
    <edge id=":10002075854_5" function="internal">
        <lane id=":10002075854_5_0" index="0" disallow="tram rail_urban rail rail_electric rail_fast ship" speed="5.34" length="6.57" shape="296.42,1038.56 296.53,1038.75 295.40,1040.71 292.52,1043.60"/>
    </edge>
    <edge id=":10002075855_0" function="internal">
        <lane id=":10002075855_0_0" index="0" disallow="tram rail_urban rail rail_electric rail_fast ship" speed="13.89" length="4.71" shape="274.66,1032.23 274.60,1030.83 274.53,1029.87 274.29,1028.94 273.75,1027.66"/>
    </edge>
    <edge id=":10002075855_1" function="internal">
        <lane id=":10002075855_1_0" index="0" disallow="tram rail_urban rail rail_electric rail_fast ship" speed="5.44" length="3.56" shape="274.66,1032.23 274.89,1029.66 275.77,1029.23"/>
    </edge>
    <edge id=":10002075855_4" function="internal">
        <lane id=":10002075855_4_0" index="0" disallow="tram rail_urban rail rail_electric rail_fast ship" speed="5.44" length="7.11" shape="275.77,1029.23 275.95,1029.14 277.84,1030.67 280.55,1034.24"/>
    </edge>
    <edge id=":10002075855_2" function="internal">
        <lane id=":10002075855_2_0" index="0" disallow="tram rail_urban rail rail_electric rail_fast ship" speed="13.89" length="8.85" shape="276.66,1026.32 277.70,1028.73 278.37,1030.41 279.16,1032.02 280.55,1034.24"/>
    </edge>
    <edge id=":10002075855_3" function="internal">
        <lane id=":10002075855_3_0" index="0" disallow="tram rail_urban rail rail_electric rail_fast ship" speed="3.65" length="1.44" shape="276.66,1026.32 276.44,1027.75"/>
    </edge>
    <edge id=":10002075855_5" function="internal">
        <lane id=":10002075855_5_0" index="0" disallow="tram rail_urban rail rail_electric rail_fast ship" speed="3.65" length="3.23" shape="276.44,1027.75 275.88,1028.44 274.98,1028.42 273.75,1027.66"/>
    </edge>
    <edge id=":10002075857_0" function="internal">
        <lane id=":10002075857_0_0" index="0" disallow="tram rail_urban rail rail_electric rail_fast ship" speed="13.89" length="6.29" shape="292.37,1061.25 291.01,1060.00 290.29,1058.91 289.55,1057.84 288.14,1056.67"/>
    </edge>
    <edge id=":10002075857_1" function="internal">
        <lane id=":10002075857_1_0" index="0" disallow="tram rail_urban rail rail_electric rail_fast ship" speed="3.65" length="1.44" shape="292.37,1061.25 291.87,1059.90"/>
    </edge>
    <edge id=":10002075857_4" function="internal">
        <lane id=":10002075857_4_0" index="0" disallow="tram rail_urban rail rail_electric rail_fast ship" speed="3.65" length="3.23" shape="291.87,1059.90 292.02,1059.01 292.81,1058.60 294.25,1058.65"/>
    </edge>
    <edge id=":10002075857_2" function="internal">
        <lane id=":10002075857_2_0" index="0" disallow="tram rail_urban rail rail_electric rail_fast ship" speed="11.68" length="5.67" shape="291.06,1054.10 291.75,1055.64 292.26,1056.71 292.97,1057.61 294.25,1058.65"/>
    </edge>
    <edge id=":10002075857_3" function="internal">
        <lane id=":10002075857_3_0" index="0" disallow="tram rail_urban rail rail_electric rail_fast ship" speed="4.86" length="2.94" shape="291.06,1054.10 292.04,1056.68 292.01,1056.86"/>
    </edge>
    <edge id=":10002075857_5" function="internal">
        <lane id=":10002075857_5_0" index="0" disallow="tram rail_urban rail rail_electric rail_fast ship" speed="4.86" length="5.18" shape="292.01,1056.86 291.87,1057.97 290.57,1057.97 288.14,1056.67"/>
    </edge>
    <edge id=":10211976235_0" function="internal">
        <lane id=":10211976235_0_0" index="0" disallow="tram rail_urban rail rail_electric rail_fast ship" speed="13.89" length="0.84" shape="527.69,807.07 528.51,807.23"/>
        <lane id=":10211976235_0_1" index="1" disallow="tram rail_urban rail rail_electric rail_fast ship" speed="13.89" length="0.84" shape="528.33,803.93 529.14,804.10"/>
    </edge>
    <edge id=":11350116026_0" function="internal">
        <lane id=":11350116026_0_0" index="0" disallow="tram rail_urban rail rail_electric rail_fast ship" speed="3.65" length="4.67" shape="138.29,0.97 138.20,-0.47 138.60,-1.27 139.47,-1.44 140.84,-0.97"/>
    </edge>
    <edge id=":11354899403_0" function="internal">
        <lane id=":11354899403_0_0" index="0" disallow="tram rail_urban rail rail_electric rail_fast ship" speed="13.89" length="0.24" shape="325.48,412.91 325.30,413.08"/>
    </edge>
    <edge id=":11354899403_1" function="internal">
        <lane id=":11354899403_1_0" index="0" disallow="tram rail_urban rail rail_electric rail_fast ship" speed="13.89" length="0.31" shape="323.03,410.83 323.25,410.61"/>
    </edge>
    <edge id=":1406433108_0" function="internal">
        <lane id=":1406433108_0_0" index="0" disallow="tram rail_urban rail rail_electric rail_fast ship" speed="3.90" length="2.61" shape="1147.96,400.71 1147.24,400.72 1146.70,400.96 1146.34,401.43 1146.16,402.12"/>
    </edge>
    <edge id=":1406433108_1" function="internal">
        <lane id=":1406433108_1_0" index="0" disallow="tram rail_urban rail rail_electric rail_fast ship" speed="6.07" length="7.84" shape="1142.98,401.76 1143.53,399.68 1144.61,398.28 1146.22,397.57 1148.38,397.54"/>
    </edge>
    <edge id=":1406433175_0" function="internal">
        <lane id=":1406433175_0_0" index="0" disallow="tram rail_urban rail rail_electric rail_fast ship" speed="6.15" length="9.06" shape="1044.17,979.58 1042.15,981.14 1041.25,982.90 1041.47,984.87 1042.81,987.04"/>
    </edge>
    <edge id=":1406433175_1" function="internal">
        <lane id=":1406433175_1_0" index="0" disallow="tram rail_urban rail rail_electric rail_fast ship" speed="13.89" length="11.28" shape="1044.17,979.58 1034.40,985.23"/>
    </edge>
    <edge id=":1406433333_0" function="internal">
        <lane id=":1406433333_0_0" index="0" disallow="tram rail_urban rail rail_electric rail_fast ship" speed="3.90" length="2.85" shape="1161.82,588.49 1162.49,588.92 1162.84,589.44 1162.85,590.07 1162.52,590.80"/>
    </edge>
    <edge id=":1406433375_0" function="internal">
        <lane id=":1406433375_0_0" index="0" disallow="tram rail_urban rail rail_electric rail_fast ship" speed="10.32" length="6.78" shape="1108.85,561.74 1107.01,561.09 1105.65,561.03 1104.24,561.36 1102.27,561.83"/>
    </edge>
    <edge id=":1406433375_1" function="internal">
        <lane id=":1406433375_1_0" index="0" disallow="tram rail_urban rail rail_electric rail_fast ship" speed="11.18" length="6.87" shape="1108.85,561.74 1107.01,560.88 1105.80,560.14 1104.82,559.13 1103.68,557.47"/>
    </edge>
    <edge id=":1406433574_0" function="internal">
        <lane id=":1406433574_0_0" index="0" disallow="tram rail_urban rail rail_electric rail_fast ship" speed="13.17" length="7.21" shape="1126.20,547.00 1124.95,548.76 1124.06,549.98 1123.48,551.32 1123.16,553.38"/>
    </edge>
    <edge id=":1406433574_1" function="internal">
        <lane id=":1406433574_1_0" index="0" disallow="tram rail_urban rail rail_electric rail_fast ship" speed="11.53" length="7.31" shape="1121.68,546.40 1122.67,548.32 1123.16,549.73 1123.28,551.23 1123.16,553.38"/>
    </edge>
    <edge id=":1406433674_0" function="internal">
        <lane id=":1406433674_0_0" index="0" disallow="tram rail_urban rail rail_electric rail_fast ship" speed="6.55" length="8.57" shape="1146.08,575.76 1145.62,578.05 1145.96,579.99 1147.11,581.57 1149.06,582.80"/>
    </edge>
    <edge id=":1406433674_1" function="internal">
        <lane id=":1406433674_1_0" index="0" disallow="tram rail_urban rail rail_electric rail_fast ship" speed="13.89" length="10.38" shape="1139.37,579.11 1142.25,580.04 1144.29,580.76 1146.29,581.58 1149.06,582.80"/>
    </edge>
    <edge id=":1406433704_0" function="internal">
        <lane id=":1406433704_0_0" index="0" disallow="tram rail_urban rail rail_electric rail_fast ship" speed="7.31" length="7.64" shape="1017.43,886.66 1017.16,888.33 1017.47,890.02 1018.36,891.74 1019.84,893.48"/>
    </edge>
    <edge id=":1406433704_1" function="internal">
        <lane id=":1406433704_1_0" index="0" disallow="tram rail_urban rail rail_electric rail_fast ship" speed="13.89" length="8.49" shape="1017.43,886.66 1014.57,894.65"/>
    </edge>
    <edge id=":1406433868_0" function="internal">
        <lane id=":1406433868_0_0" index="0" disallow="tram rail_urban rail rail_electric rail_fast ship" speed="21.04" length="7.62" shape="1107.63,542.49 1109.57,541.40 1110.74,540.40 1111.76,539.19 1113.26,537.49"/>
    </edge>
    <edge id=":1406433868_1" function="internal">
        <lane id=":1406433868_1_0" index="0" disallow="tram rail_urban rail rail_electric rail_fast ship" speed="11.52" length="7.76" shape="1107.63,542.49 1109.71,541.57 1111.25,541.20 1112.85,541.24 1115.12,541.55"/>
    </edge>
    <edge id=":1406433926_0" function="internal">
        <lane id=":1406433926_0_0" index="0" disallow="tram rail_urban rail rail_electric rail_fast ship" speed="13.89" length="0.25" shape="1093.58,853.12 1093.39,852.97"/>
    </edge>
    <edge id=":1406433926_1" function="internal">
        <lane id=":1406433926_1_0" index="0" disallow="tram rail_urban rail rail_electric rail_fast ship" speed="13.89" length="0.31" shape="1095.35,850.44 1095.59,850.63"/>
    </edge>
    <edge id=":1406434181_0" function="internal">
        <lane id=":1406434181_0_0" index="0" disallow="tram rail_urban rail rail_electric rail_fast ship" speed="22.22" length="0.20" shape="1134.26,506.92 1134.24,507.12"/>
    </edge>
    <edge id=":1406434181_1" function="internal">
        <lane id=":1406434181_1_0" index="0" disallow="tram rail_urban rail rail_electric rail_fast ship" speed="22.22" length="0.10" shape="1131.08,506.70 1131.08,506.61"/>
    </edge>
    <edge id=":1406434277_0" function="internal">
        <lane id=":1406434277_0_0" index="0" disallow="tram rail_urban rail rail_electric rail_fast ship" speed="13.89" length="10.82" shape="1149.92,472.98 1148.52,483.71"/>
    </edge>
    <edge id=":1406434277_1" function="internal">
        <lane id=":1406434277_1_0" index="0" disallow="tram rail_urban rail rail_electric rail_fast ship" speed="6.38" length="8.90" shape="1149.92,472.98 1149.32,475.29 1148.09,476.83 1146.21,477.59 1143.69,477.57"/>
    </edge>
    <edge id=":1443502514_0" function="internal">
        <lane id=":1443502514_0_0" index="0" disallow="tram rail_urban rail rail_electric rail_fast ship" speed="13.89" length="14.30" shape="807.73,303.94 794.95,297.54"/>
    </edge>
    <edge id=":1443502514_1" function="internal">
        <lane id=":1443502514_1_0" index="0" disallow="tram rail_urban rail rail_electric rail_fast ship" speed="3.65" length="4.67" shape="807.73,303.94 807.03,302.68 807.05,301.79 807.77,301.26 809.20,301.10"/>
    </edge>
    <edge id=":1443502514_2" function="internal">
        <lane id=":1443502514_2_0" index="0" disallow="tram rail_urban rail rail_electric rail_fast ship" speed="13.89" length="14.38" shape="796.34,294.66 809.20,301.10"/>
    </edge>
    <edge id=":1443502514_3" function="internal">
        <lane id=":1443502514_3_0" index="0" disallow="tram rail_urban rail rail_electric rail_fast ship" speed="3.65" length="4.67" shape="796.34,294.66 797.07,295.90 797.08,296.79 796.37,297.34 794.95,297.54"/>
    </edge>
    <edge id=":1443502514_4" function="internal">
        <lane id=":1443502514_4_0" index="0" disallow="tram rail_urban rail rail_electric rail_fast ship" speed="6.65" length="9.06" shape="797.57,305.14 798.23,302.69 798.01,300.60 796.92,298.89 794.95,297.54"/>
    </edge>
    <edge id=":1443502514_5" function="internal">
        <lane id=":1443502514_5_0" index="0" disallow="tram rail_urban rail rail_electric rail_fast ship" speed="7.14" length="11.77" shape="800.48,306.48 802.29,303.09 804.35,301.07 806.66,300.40 809.20,301.10"/>
    </edge>
    <edge id=":1443502547_0" function="internal">
        <lane id=":1443502547_0_0" index="0" disallow="tram rail_urban rail rail_electric rail_fast ship" speed="6.52" length="8.59" shape="812.88,359.88 810.66,359.16 808.71,359.29 807.01,360.28 805.57,362.12"/>
    </edge>
    <edge id=":1443502547_1" function="internal">
        <lane id=":1443502547_1_0" index="0" disallow="tram rail_urban rail rail_electric rail_fast ship" speed="13.89" length="12.66" shape="812.88,359.88 809.36,358.13 807.03,356.72 805.00,354.93 802.35,352.03"/>
        <lane id=":1443502547_1_1" index="1" disallow="tram rail_urban rail rail_electric rail_fast ship" speed="13.89" length="12.66" shape="814.29,357.01 811.10,355.42 808.99,354.15 807.15,352.53 804.75,349.91"/>
    </edge>
    <edge id=":1443502547_3" function="internal">
        <lane id=":1443502547_3_0" index="0" disallow="tram rail_urban rail rail_electric rail_fast ship" speed="7.45" length="9.15" shape="802.80,360.52 803.82,358.18 804.08,355.98 803.59,353.93 802.35,352.03"/>
    </edge>
    <edge id=":1443502547_4" function="internal">
        <lane id=":1443502547_4_0" index="0" disallow="tram rail_urban rail rail_electric rail_fast ship" speed="3.65" length="4.67" shape="802.80,360.52 804.09,359.88 804.98,359.93 805.48,360.68 805.57,362.12"/>
    </edge>
    <edge id=":1443502582_0" function="internal">
        <lane id=":1443502582_0_0" index="0" disallow="tram rail_urban rail rail_electric rail_fast ship" speed="5.62" length="7.85" shape="529.94,528.77 529.09,531.24 529.10,533.10 529.97,534.36 531.70,535.00"/>
    </edge>
    <edge id=":1443502582_1" function="internal">
        <lane id=":1443502582_1_0" index="0" disallow="tram rail_urban rail rail_electric rail_fast ship" speed="13.89" length="14.71" shape="529.94,528.77 523.93,542.16"/>
        <lane id=":1443502582_1_1" index="1" disallow="tram rail_urban rail rail_electric rail_fast ship" speed="13.89" length="14.71" shape="527.03,527.43 520.99,540.88"/>
    </edge>
    <edge id=":1443502582_3" function="internal">
        <lane id=":1443502582_3_0" index="0" disallow="tram rail_urban rail rail_electric rail_fast ship" speed="13.89" length="10.76" shape="521.16,534.42 524.01,535.50 526.00,536.52 528.08,537.43 531.21,538.16"/>
    </edge>
    <edge id=":1443502582_4" function="internal">
        <lane id=":1443502582_4_0" index="0" disallow="tram rail_urban rail rail_electric rail_fast ship" speed="5.64" length="7.11" shape="521.16,534.42 522.03,535.09 522.29,536.38 521.94,538.32 520.99,540.88"/>
    </edge>
    <edge id=":1443502583_0" function="internal">
        <lane id=":1443502583_0_0" index="0" disallow="tram rail_urban rail rail_electric rail_fast ship" speed="6.28" length="8.68" shape="539.84,531.09 539.32,533.29 539.73,535.13 541.06,536.62 543.32,537.77"/>
    </edge>
    <edge id=":1443502583_1" function="internal">
        <lane id=":1443502583_1_0" index="0" disallow="tram rail_urban rail rail_electric rail_fast ship" speed="13.89" length="11.48" shape="531.90,535.03 535.35,535.56 537.71,536.00 540.02,536.64 543.32,537.77"/>
        <lane id=":1443502583_1_1" index="1" disallow="tram rail_urban rail rail_electric rail_fast ship" speed="13.89" length="11.48" shape="531.41,538.19 534.69,538.69 536.93,539.11 539.12,539.71 542.25,540.78"/>
    </edge>
    <edge id=":1443502797_0" function="internal">
        <lane id=":1443502797_0_0" index="0" disallow="tram rail_urban rail rail_electric rail_fast ship" speed="13.44" length="9.21" shape="530.45,739.78 531.59,742.00 532.36,743.60 533.40,744.92 535.38,746.31"/>
        <lane id=":1443502797_0_1" index="1" disallow="tram rail_urban rail rail_electric rail_fast ship" speed="13.89" length="9.21" shape="527.68,741.38 529.07,744.03 530.06,745.91 531.38,747.44 533.79,749.08"/>
    </edge>
    <edge id=":1443502797_2" function="internal">
        <lane id=":1443502797_2_0" index="0" disallow="tram rail_urban rail rail_electric rail_fast ship" speed="13.85" length="9.21" shape="525.61,745.14 528.61,744.90 530.74,744.73 532.75,745.06 535.38,746.31"/>
        <lane id=":1443502797_2_1" index="1" disallow="tram rail_urban rail rail_electric rail_fast ship" speed="12.60" length="9.21" shape="525.72,748.33 528.20,748.10 529.96,747.90 531.61,748.09 533.79,749.08"/>
    </edge>
    <edge id=":1443502834_0" function="internal">
        <lane id=":1443502834_0_0" index="0" disallow="tram rail_urban rail rail_electric rail_fast ship" speed="13.89" length="3.48" shape="525.88,824.96 523.48,827.48"/>
    </edge>
    <edge id=":1443502834_1" function="internal">
        <lane id=":1443502834_1_0" index="0" disallow="pedestrian tram rail_urban rail rail_electric rail_fast ship" speed="5.49" length="5.14" shape="525.88,824.96 522.85,827.78 521.90,828.11"/>
    </edge>
    <edge id=":1443502834_4" function="internal">
        <lane id=":1443502834_4_0" index="0" disallow="pedestrian tram rail_urban rail rail_electric rail_fast ship" speed="5.49" length="6.84" shape="521.90,828.11 521.42,828.28 521.59,826.46 523.35,822.32"/>
    </edge>
    <edge id=":1443502834_2" function="internal">
        <lane id=":1443502834_2_0" index="0" disallow="pedestrian tram rail_urban rail rail_electric rail_fast ship" speed="13.89" length="3.56" shape="521.27,825.16 522.03,824.43 522.50,823.88 522.88,823.26 523.35,822.32"/>
    </edge>
    <edge id=":1443502834_3" function="internal">