<?xml version="1.0" encoding="UTF-8"?>

<!-- generated on 2024-04-08 16:43:32 by Eclipse SUMO netedit Version 1.12.0
-->

<routes xmlns:xsi="http://www.w3.org/2001/XMLSchema-instance" xsi:noNamespaceSchemaLocation="http://sumo.dlr.de/xsd/routes_file.xsd">
    <vehicle id="0" type="vehicle.ford.ambulance" depart="3.00">
        <route edges="34149770 176509600"/>
    </vehicle>
</routes>
