<?xml version="1.0" encoding="UTF-8"?>

<!-- generated on 2024-04-29 17:23:00 by 
<configuration xmlns:xsi="http://www.w3.org/2001/XMLSchema-instance" xsi:noNamespaceSchemaLocation="http://sumo.dlr.de/xsd/Configuration.xsd">

    <input>
        <osm-files value="TRUE"/>
    </input>

    <output>
        <opendrive-output value="TRUE"/>
    </output>

    <projection>
        <proj value="+proj=tmerc"/>
    </projection>

    <processing>
        <geometry.remove value="true"/>
        <roundabouts.guess value="true"/>
        <edges.join value="true"/>
    </processing>

    <building_defaults>
        <default.lanewidth value="3.350000"/>
        <default.sidewalk-width value="2.800000"/>
    </building_defaults>

    <tls_building>
        <tls.group-signals value="true"/>
    </tls_building>

    <ramp_guessing>
        <ramps.guess value="true"/>
    </ramp_guessing>

    <edge_removal>
        <keep-edges.by-type value="highway.motorway,highway.motorway_link,highway.trunk,highway.trunk_link,highway.primary,highway.primary_link,highway.secondary,highway.secondary_link,highway.tertiary,highway.tertiary_link,highway.unclassified,highway.residential,"/>
    </edge_removal>

    <junctions>
        <junctions.join value="true"/>
    </junctions>

    <pedestrian>
        <sidewalks.guess value="true"/>
    </pedestrian>

    <formats>
        <osm.sidewalks value="true"/>
        <osm.crossings value="true"/>
    </formats>

    <report>
        <aggregate-warnings value="5"/>
    </report>

</configuration>
-->

<OpenDRIVE>
    <header revMajor="1" revMinor="4" name="" version="1" date="2019-02-18T13:36:12" north="582.3467482689111" south="617.8654465470368" east="582.4434339909077" west="617.8192800747931">
    <geoReference><![CDATA[+proj=tmerc +lat_0=40.62799802003675 +lon_0=-8.661929510719308 +x_0=0 +y_0=0 +k_0=1.0 +ellps=GRS80 +units=m +no_defs]]></geoReference>
    </header>
    <road name="Rua de Santiago" length="0.20000000" id="1390" junction="-1">
        <type s="0" type="town"/>
        <planView>
            <geometry s="0.00000000" x="639.94804801" y="263.28646511" hdg="-2.66913103" length="0.20000000">
                <line/>
            </geometry>
        </planView>
        <elevationProfile>
            <elevation s="0" a="0.00" b="0" c="0" d="0"/>
        </elevationProfile>
        <lateralProfile/>
        <lanes>
            <laneSection s="0">
                <center>
                    <lane id="0" type="none" level="true">
                        <link/>
                        <roadMark sOffset="0" type="solid" weight="standard" color="standard" width="0.13" laneChange="none"/>
                    </lane>
                </center>
                <right>
                    <lane id="-1" type="sidewalk" level="true">
                        <link/>
                        <width sOffset="0" a="3.20" b="0" c="0" d="0"/>
                        <roadMark sOffset="0" type="solid" weight="standard" color="standard" width="0.13" laneChange="none"/>
                        <speed sOffset="0" max="13.89"/>
                    </lane>
                 </right>
            </laneSection>
        </lanes>
        <objects/>
    </road>
    <road name="Rua 4.ª Companhia Caçadores Especiais" length="139.26541033" id="1391" junction="-1">
        <link>
            <predecessor elementType="junction" elementId="1"/>
            <successor elementType="junction" elementId="2"/>
        </link>
        <type s="0" type="town"/>
        <planView>
            <geometry s="0.00000000" x="1026.89132422" y="892.13728470" hdg="-2.73111586" length="62.94472594">
                <line/>
            </geometry>
            <geometry s="62.94472594" x="969.17537480" y="867.01940846" hdg="-2.73111586" length="12.20359162">
                <paramPoly3 aU="-0.00000000" bU="13.89000000" cU="-4.66984977" dU="0.00000000" aV="0.00000000" bV="0.00000000" cV="-6.56176169" dV="0.00000000" pRange="normalized"/>
            </geometry>
            <geometry s="75.14831757" x="958.10268790" y="869.35681976" hdg="2.31503055" length="41.71028437">
                <line/>
            </geometry>
            <geometry s="116.85860193" x="929.84777835" y="900.03919105" hdg="2.31503055" length="13.88779492">
                <paramPoly3 aU="0.00000000" bU="10.41541212" cU="10.41541128" dU="-6.94639053" aV="-0.00000000" bV="-0.00000000" cV="0.41711727" dV="-0.13909481" pRange="normalized"/>
            </geometry>
            <geometry s="130.74639685" x="920.23782749" y="910.06434028" hdg="2.35507328" length="8.51901348">
                <line/>
            </geometry>
        </planView>
        <elevationProfile>
            <elevation s="0" a="0.00" b="0" c="0" d="0"/>
        </elevationProfile>
        <lateralProfile/>
        <lanes>
            <laneSection s="0">
                <center>
                    <lane id="0" type="none" level="true">
                        <link/>
                        <roadMark sOffset="0" type="solid" weight="standard" color="standard" width="0.13" laneChange="none"/>
                    </lane>
                </center>
                <right>
                    <lane id="-1" type="driving" level="true">
                        <link/>
                        <width sOffset="0" a="3.35" b="0" c="0" d="0"/>
                        <roadMark sOffset="0" type="solid" weight="standard" color="standard" width="0.13" laneChange="none"/>
                        <speed sOffset="0" max="13.89"/>
                    </lane>
                    <lane id="-2" type="sidewalk" level="true">
                        <link/>
                        <width sOffset="0" a="2.80" b="0" c="0" d="0"/>
                        <roadMark sOffset="0" type="solid" weight="standard" color="standard" width="0.13" laneChange="none"/>
                        <speed sOffset="0" max="13.89"/>
                    </lane>
                 </right>
            </laneSection>
        </lanes>
        <objects/>
    </road>
    <road name="Rua de Santiago" length="0.20000000" id="1392" junction="-1">
        <link>
            <predecessor elementType="junction" elementId="3"/>
        </link>
        <type s="0" type="town"/>
        <planView>
            <geometry s="0.00000000" x="637.49750640" y="268.46281645" hdg="1.13019382" length="0.20000000">
                <line/>
            </geometry>
        </planView>
        <elevationProfile>
            <elevation s="0" a="0.00" b="0" c="0" d="0"/>
        </elevationProfile>
        <lateralProfile/>
        <lanes>
            <laneSection s="0">
                <center>
                    <lane id="0" type="none" level="true">
                        <link/>
                        <roadMark sOffset="0" type="solid" weight="standard" color="standard" width="0.13" laneChange="none"/>
                    </lane>
                </center>
                <right>
                    <lane id="-1" type="sidewalk" level="true">
                        <link/>
                        <width sOffset="0" a="3.20" b="0" c="0" d="0"/>
                        <roadMark sOffset="0" type="solid" weight="standard" color="standard" width="0.13" laneChange="none"/>
                        <speed sOffset="0" max="13.89"/>
                    </lane>
                 </right>
            </laneSection>
        </lanes>
        <objects/>
    </road>
    <road name="Rua Castro Matoso" length="44.47268956" id="1393" junction="-1">
        <link>
            <predecessor elementType="junction" elementId="4"/>
        </link>
        <type s="0" type="town"/>
        <planView>
            <geometry s="0.00000000" x="933.42171303" y="1010.70769633" hdg="0.66587344" length="9.06616194">
                <line/>
            </geometry>
            <geometry s="9.06616194" x="940.55113899" y="1016.30828361" hdg="0.62403366" length="35.40652762">
                <line/>
            </geometry>
        </planView>
        <elevationProfile>
            <elevation s="0" a="0.00" b="0" c="0" d="0"/>
        </elevationProfile>
        <lateralProfile/>
        <lanes>
            <laneSection s="0">
                <center>
                    <lane id="0" type="none" level="true">
                        <link/>
                        <roadMark sOffset="0" type="solid" weight="standard" color="standard" width="0.13" laneChange="none"/>
                    </lane>
                </center>
                <right>
                    <lane id="-1" type="sidewalk" level="true">
                        <link/>
                        <width sOffset="0" a="3.20" b="0" c="0" d="0"/>
                        <roadMark sOffset="0" type="solid" weight="standard" color="standard" width="0.13" laneChange="none"/>
                        <speed sOffset="0" max="13.89"/>
                    </lane>
                 </right>
            </laneSection>
        </lanes>
        <objects/>
    </road>
    <road name="Rua José Joaquim Lopes de Lima" length="287.20321905" id="1394" junction="-1">
        <link>
            <predecessor elementType="junction" elementId="5"/>
            <successor elementType="junction" elementId="6"/>
        </link>
        <type s="0" type="town"/>
        <planView>
            <geometry s="0.00000000" x="1158.47182669" y="947.16894150" hdg="-2.34791943" length="0.20000000">
                <line/>
            </geometry>
            <geometry s="0.20000000" x="1158.33158043" y="947.02635473" hdg="-2.34791943" length="9.19376137">
                <paramPoly3 aU="-0.00000000" bU="6.89532102" cU="6.89532082" dU="-4.59688058" aV="0.00000000" bV="0.00000000" cV="0.00292816" dV="-0.00154834" pRange="normalized"/>
            </geometry>
            <geometry s="9.39376137" x="1151.88561110" y="940.47084352" hdg="-2.34774376" length="10.22425559">
                <paramPoly3 aU="-0.00000000" bU="7.66796599" cU="7.67073702" dU="-5.11474835" aV="0.00000000" bV="-0.00000000" cV="0.20683354" dV="-0.20659829" pRange="normalized"/>
            </geometry>
            <geometry s="19.61801696" x="1144.71770251" y="933.18041587" hdg="-2.37462868" length="7.15491017">
                <paramPoly3 aU="-0.00000000" bU="5.36498434" cU="5.37181301" dU="-3.58877564" aV="0.00000000" bV="0.00000000" cV="-0.33220080" dV="0.05712857" pRange="normalized"/>
            </geometry>
            <geometry s="26.77292713" x="1139.38009084" y="928.41808653" hdg="-2.46665364" length="31.46367262">
                <line/>
            </geometry>
            <geometry s="58.23659975" x="1114.81498389" y="908.75802003" hdg="-2.46665364" length="13.88999987">
                <paramPoly3 aU="-0.00000000" bU="10.41749989" cU="10.41749961" dU="-6.94499978" aV="0.00000000" bV="-0.00000000" cV="-0.00425013" dV="0.00226873" pRange="normalized"/>
            </geometry>
            <geometry s="72.12659962" x="1103.96919715" y="900.08040479" hdg="-2.46681626" length="2.26079021">
                <paramPoly3 aU="-0.00000000" bU="1.69558723" cU="1.69565531" dU="-1.13045958" aV="0.00000000" bV="-0.00000000" cV="0.01436805" dV="-0.01464540" pRange="normalized"/>
            </geometry>
            <geometry s="74.38738983" x="1102.20369907" y="898.66825886" hdg="-2.47578089" length="13.88927256">
                <paramPoly3 aU="-0.00000000" bU="10.41694943" cU="10.41699733" dU="-6.94469524" aV="0.00000000" bV="0.00000000" cV="-0.01641399" dV="-0.00357549" pRange="normalized"/>
            </geometry>
            <geometry s="88.27666240" x="1091.26862726" y="890.10461991" hdg="-2.47996202" length="5.10025815">
                <paramPoly3 aU="-0.00000000" bU="3.78853974" cU="4.24254512" dU="-2.97984209" aV="0.00000000" bV="-0.00000000" cV="-1.91335668" dV="1.87527345" pRange="normalized"/>
            </geometry>
            <geometry s="93.37692055" x="1087.25984161" y="887.03116234" hdg="-1.98513277" length="10.53538619">
                <paramPoly3 aU="-0.00000000" bU="16.63828943" cU="-6.69554622" dU="0.00000000" aV="0.00000000" bV="-0.00000000" cV="2.43225629" dV="0.00000000" pRange="normalized"/>
            </geometry>
            <geometry s="103.91230674" x="1085.48351372" y="876.95055362" hdg="-1.00293493" length="18.92453550">
                <line/>
            </geometry>
            <geometry s="122.83684223" x="1095.66170281" y="860.99616518" hdg="-1.00293493" length="13.88999664">
                <paramPoly3 aU="0.00000000" bU="10.41749682" cU="10.41749682" dU="-6.94500212" aV="0.00000000" bV="-0.00000000" cV="0.01627225" dV="-0.00542409" pRange="normalized"/>
            </geometry>
            <geometry s="136.72683888" x="1103.14130706" y="849.29199914" hdg="-1.00137292" length="65.34210143">
                <line/>
            </geometry>
            <geometry s="202.06894031" x="1138.37027415" y="794.26009842" hdg="-1.00137292" length="13.88929091">
                <paramPoly3 aU="0.00000000" bU="10.41690145" cU="10.41566580" dU="-6.94416335" aV="0.00000000" bV="0.00000000" cV="0.29131138" dV="-0.14242454" pRange="normalized"/>
            </geometry>
            <geometry s="215.95823122" x="1145.98355317" y="782.64339007" hdg="-0.98645918" length="8.92606141">
                <paramPoly3 aU="0.00000000" bU="6.69452708" cU="6.69395903" dU="-4.46264007" aV="0.00000000" bV="0.00000000" cV="0.18011851" dV="-0.12186851" pRange="normalized"/>
            </geometry>
            <geometry s="224.88429264" x="1150.95605108" y="775.23067228" hdg="-0.98726111" length="12.26348919">
                <paramPoly3 aU="0.00000000" bU="9.02305433" cU="11.32600559" dU="-8.31849861" aV="0.00000000" bV="0.00000000" cV="5.82564432" dV="-5.89105218" pRange="normalized"/>
            </geometry>
            <geometry s="237.14778183" x="1157.53003649" y="765.15488946" hdg="-1.71795543" length="13.38725325">
                <paramPoly3 aU="-0.00000000" bU="9.88396465" cU="3.83841073" dU="-3.23474606" aV="0.00000000" bV="0.00000000" cV="-17.94370200" dV="9.96337343" pRange="normalized"/>
            </geometry>
            <geometry s="250.53503508" x="1148.09817660" y="755.95075823" hdg="-2.36994495" length="36.66818398">
                <line/>
            </geometry>
        </planView>
        <elevationProfile>
            <elevation s="0" a="0.00" b="0" c="0" d="0"/>
        </elevationProfile>
        <lateralProfile/>
        <lanes>
            <laneSection s="0">
                <center>
                    <lane id="0" type="none" level="true">
                        <link/>
                        <roadMark sOffset="0" type="solid" weight="standard" color="standard" width="0.13" laneChange="none"/>
                    </lane>
                </center>
                <right>
                    <lane id="-1" type="driving" level="true">
                        <link/>
                        <width sOffset="0" a="3.35" b="0" c="0" d="0"/>
                        <roadMark sOffset="0" type="solid" weight="standard" color="standard" width="0.13" laneChange="none"/>
                        <speed sOffset="0" max="13.89"/>
                    </lane>
                    <lane id="-2" type="sidewalk" level="true">
                        <link/>
                        <width sOffset="0" a="2.80" b="0" c="0" d="0"/>
                        <roadMark sOffset="0" type="solid" weight="standard" color="standard" width="0.13" laneChange="none"/>
                        <speed sOffset="0" max="13.89"/>
                    </lane>
                 </right>
            </laneSection>
        </lanes>
        <objects/>
    </road>
    <road name="Travessa de São Martinho" length="89.14538208" id="1395" junction="-1">
        <link>
            <predecessor elementType="junction" elementId="7"/>
        </link>
        <type s="0" type="town"/>
        <planView>
            <geometry s="0.00000000" x="1071.19823444" y="1101.69705238" hdg="-2.38490483" length="2.29874311">
                <line/>
            </geometry>
            <geometry s="2.29874311" x="1069.52678646" y="1100.11892642" hdg="-2.36271882" length="21.64310312">
                <line/>
            </geometry>
            <geometry s="23.94184623" x="1054.12327965" y="1084.91511471" hdg="-2.34931533" length="8.28746714">
                <line/>
            </geometry>
            <geometry s="32.22931337" x="1048.30360651" y="1079.01481674" hdg="-1.09646448" length="32.67523468">
                <line/>
            </geometry>
            <geometry s="64.90454805" x="1063.22782904" y="1049.94699014" hdg="-2.27323272" length="24.24083403">
                <line/>
            </geometry>
        </planView>
        <elevationProfile>
            <elevation s="0" a="0.00" b="0" c="0" d="0"/>
        </elevationProfile>
        <lateralProfile/>
        <lanes>
            <laneSection s="0">
                <center>
                    <lane id="0" type="none" level="true">
                        <link/>
                        <roadMark sOffset="0" type="solid" weight="standard" color="standard" width="0.13" laneChange="none"/>
                    </lane>
                </center>
                <right>
                    <lane id="-1" type="sidewalk" level="true">
                        <link/>
                        <width sOffset="0" a="3.20" b="0" c="0" d="0"/>
                        <roadMark sOffset="0" type="solid" weight="standard" color="standard" width="0.13" laneChange="none"/>
                        <speed sOffset="0" max="13.89"/>
                    </lane>
                 </right>
            </laneSection>
        </lanes>
        <objects/>
    </road>
    <road name="" length="11.61548289" id="1396" junction="-1">
        <link>
            <predecessor elementType="junction" elementId="8"/>
        </link>
        <type s="0" type="town"/>
        <planView>
            <geometry s="0.00000000" x="1142.75284472" y="623.42039130" hdg="-2.83744005" length="11.61548289">
                <line/>
            </geometry>
        </planView>
        <elevationProfile>
            <elevation s="0" a="0.00" b="0" c="0" d="0"/>
        </elevationProfile>
        <lateralProfile/>
        <lanes>
            <laneSection s="0">
                <center>
                    <lane id="0" type="none" level="true">
                        <link/>
                        <roadMark sOffset="0" type="solid" weight="standard" color="standard" width="0.13" laneChange="none"/>
                    </lane>
                </center>
                <right>
                    <lane id="-1" type="sidewalk" level="true">
                        <link/>
                        <width sOffset="0" a="3.20" b="0" c="0" d="0"/>
                        <roadMark sOffset="0" type="solid" weight="standard" color="standard" width="0.13" laneChange="none"/>
                        <speed sOffset="0" max="13.89"/>
                    </lane>
                 </right>
            </laneSection>
        </lanes>
        <objects/>
    </road>
    <road name="" length="11.76210965" id="1397" junction="-1">
        <link>
            <predecessor elementType="junction" elementId="9"/>
        </link>
        <type s="0" type="town"/>
        <planView>
            <geometry s="0.00000000" x="1161.41378450" y="631.25283993" hdg="-2.72802658" length="11.76210965">
                <line/>
            </geometry>
        </planView>
        <elevationProfile>
            <elevation s="0" a="0.00" b="0" c="0" d="0"/>
        </elevationProfile>
        <lateralProfile/>
        <lanes>
            <laneSection s="0">
                <center>
                    <lane id="0" type="none" level="true">
                        <link/>
                        <roadMark sOffset="0" type="solid" weight="standard" color="standard" width="0.13" laneChange="none"/>
                    </lane>
                </center>
                <right>
                    <lane id="-1" type="sidewalk" level="true">
                        <link/>
                        <width sOffset="0" a="3.20" b="0" c="0" d="0"/>
                        <roadMark sOffset="0" type="solid" weight="standard" color="standard" width="0.13" laneChange="none"/>
                        <speed sOffset="0" max="13.89"/>
                    </lane>
                 </right>
            </laneSection>
        </lanes>
        <objects/>
    </road>
    <road name="Rua da Associação Humanitária dos Bombeiros Voluntários de Aveiro" length="20.07396323" id="1398" junction="-1">
        <link>
            <predecessor elementType="junction" elementId="10"/>
        </link>
        <type s="0" type="town"/>
        <planView>
            <geometry s="0.00000000" x="1111.01300019" y="505.53013674" hdg="0.51252479" length="20.07396323">
                <line/>
            </geometry>
        </planView>
        <elevationProfile>
            <elevation s="0" a="0.00" b="0" c="0" d="0"/>
        </elevationProfile>
        <lateralProfile/>
        <lanes>
            <laneSection s="0">
                <center>
                    <lane id="0" type="none" level="true">
                        <link/>
                        <roadMark sOffset="0" type="solid" weight="standard" color="standard" width="0.13" laneChange="none"/>
                    </lane>
                </center>
                <right>
                    <lane id="-1" type="sidewalk" level="true">
                        <link/>
                        <width sOffset="0" a="3.20" b="0" c="0" d="0"/>
                        <roadMark sOffset="0" type="solid" weight="standard" color="standard" width="0.13" laneChange="none"/>
                        <speed sOffset="0" max="13.89"/>
                    </lane>
                 </right>
            </laneSection>
        </lanes>
        <objects/>
    </road>
    <road name="Rua Infante Dom Henrique" length="7.86106081" id="1399" junction="-1">
        <link>
            <predecessor elementType="junction" elementId="11"/>
        </link>
        <type s="0" type="town"/>
        <planView>
            <geometry s="0.00000000" x="1125.29527044" y="1044.37027068" hdg="0.77957241" length="7.86106081">
                <line/>
            </geometry>
        </planView>
        <elevationProfile>
            <elevation s="0" a="0.00" b="0" c="0" d="0"/>
        </elevationProfile>
        <lateralProfile/>
        <lanes>
            <laneSection s="0">
                <center>
                    <lane id="0" type="none" level="true">
                        <link/>
                        <roadMark sOffset="0" type="solid" weight="standard" color="standard" width="0.13" laneChange="none"/>
                    </lane>
                </center>
                <right>
                    <lane id="-1" type="sidewalk" level="true">
                        <link/>
                        <width sOffset="0" a="3.20" b="0" c="0" d="0"/>
                        <roadMark sOffset="0" type="solid" weight="standard" color="standard" width="0.13" laneChange="none"/>
                        <speed sOffset="0" max="13.89"/>
                    </lane>
                 </right>
            </laneSection>
        </lanes>
        <objects/>
    </road>
    <road name="Rua Infante Dom Henrique" length="48.01252069" id="1400" junction="-1">
        <type s="0" type="town"/>
        <planView>
            <geometry s="0.00000000" x="1090.54957709" y="1010.78714126" hdg="0.76834952" length="48.01252069">
                <line/>
            </geometry>
        </planView>
        <elevationProfile>
            <elevation s="0" a="0.00" b="0" c="0" d="0"/>
        </elevationProfile>
        <lateralProfile/>
        <lanes>
            <laneSection s="0">
                <center>
                    <lane id="0" type="none" level="true">
                        <link/>
                        <roadMark sOffset="0" type="solid" weight="standard" color="standard" width="0.13" laneChange="none"/>
                    </lane>
                </center>
                <right>
                    <lane id="-1" type="sidewalk" level="true">
                        <link/>
                        <width sOffset="0" a="3.20" b="0" c="0" d="0"/>
                        <roadMark sOffset="0" type="solid" weight="standard" color="standard" width="0.13" laneChange="none"/>
                        <speed sOffset="0" max="13.89"/>
                    </lane>
                 </right>
            </laneSection>
        </lanes>
        <objects/>
    </road>
    <road name="Rua do Sport Clube Beira-Mar" length="201.07044531" id="1401" junction="-1">
        <link>
            <predecessor elementType="junction" elementId="12"/>
        </link>
        <type s="0" type="town"/>
        <planView>
            <geometry s="0.00000000" x="709.35163107" y="586.76215057" hdg="2.05302950" length="35.76995150">
                <line/>
            </geometry>
            <geometry s="35.76995150" x="692.76300012" y="618.45294977" hdg="2.25109827" length="21.54591373">
                <line/>
            </geometry>
            <geometry s="57.31586523" x="679.21002193" y="635.20237307" hdg="-2.78340051" length="51.05550939">
                <line/>
            </geometry>
            <geometry s="108.37137462" x="631.39489563" y="617.30324640" hdg="-2.78764847" length="66.14509289">
                <line/>
            </geometry>
            <geometry s="174.51646751" x="569.34994152" y="594.37734441" hdg="-2.80644833" length="26.55397780">
                <line/>
            </geometry>
        </planView>
        <elevationProfile>
            <elevation s="0" a="0.00" b="0" c="0" d="0"/>
        </elevationProfile>
        <lateralProfile/>
        <lanes>
            <laneSection s="0">
                <center>
                    <lane id="0" type="none" level="true">
                        <link/>
                        <roadMark sOffset="0" type="solid" weight="standard" color="standard" width="0.13" laneChange="none"/>
                    </lane>
                </center>
                <right>
                    <lane id="-1" type="sidewalk" level="true">
                        <link/>
                        <width sOffset="0" a="3.20" b="0" c="0" d="0"/>
                        <roadMark sOffset="0" type="solid" weight="standard" color="standard" width="0.13" laneChange="none"/>
                        <speed sOffset="0" max="13.89"/>
                    </lane>
                 </right>
            </laneSection>
        </lanes>
        <objects/>
    </road>
    <road name="Rua do Sport Clube Beira-Mar" length="67.02913053" id="1402" junction="-1">
        <link>
            <predecessor elementType="junction" elementId="13"/>
        </link>
        <type s="0" type="town"/>
        <planView>
            <geometry s="0.00000000" x="748.49697062" y="514.21386591" hdg="2.06736264" length="67.02913053">
                <line/>
            </geometry>
        </planView>
        <elevationProfile>
            <elevation s="0" a="0.00" b="0" c="0" d="0"/>
        </elevationProfile>
        <lateralProfile/>
        <lanes>
            <laneSection s="0">
                <center>
                    <lane id="0" type="none" level="true">
                        <link/>
                        <roadMark sOffset="0" type="solid" weight="standard" color="standard" width="0.13" laneChange="none"/>
                    </lane>
                </center>
                <right>
                    <lane id="-1" type="sidewalk" level="true">
                        <link/>
                        <width sOffset="0" a="3.20" b="0" c="0" d="0"/>
                        <roadMark sOffset="0" type="solid" weight="standard" color="standard" width="0.13" laneChange="none"/>
                        <speed sOffset="0" max="13.89"/>
                    </lane>
                 </right>
            </laneSection>
        </lanes>
        <objects/>
    </road>
    <road name="Rua Bernardo Torres" length="96.99085906" id="1403" junction="-1">
        <link>
            <predecessor elementType="junction" elementId="14"/>
        </link>
        <type s="0" type="town"/>
        <planView>
            <geometry s="0.00000000" x="1089.38270787" y="758.04877048" hdg="-2.57726026" length="96.99085906">
                <line/>
            </geometry>
        </planView>
        <elevationProfile>
            <elevation s="0" a="0.00" b="0" c="0" d="0"/>
        </elevationProfile>
        <lateralProfile/>
        <lanes>
            <laneSection s="0">
                <center>
                    <lane id="0" type="none" level="true">
                        <link/>
                        <roadMark sOffset="0" type="solid" weight="standard" color="standard" width="0.13" laneChange="none"/>
                    </lane>
                </center>
                <right>
                    <lane id="-1" type="sidewalk" level="true">
                        <link/>
                        <width sOffset="0" a="3.20" b="0" c="0" d="0"/>
                        <roadMark sOffset="0" type="solid" weight="standard" color="standard" width="0.13" laneChange="none"/>
                        <speed sOffset="0" max="13.89"/>
                    </lane>
                 </right>
            </laneSection>
        </lanes>
        <objects/>
    </road>
    <road name="Rua Doutor Francisco Vale Guimarães" length="112.29157996" id="1404" junction="-1">
        <link>
            <predecessor elementType="junction" elementId="15"/>
            <successor elementType="junction" elementId="16"/>
        </link>
        <type s="0" type="town"/>
        <planView>
            <geometry s="0.00000000" x="846.32891647" y="1042.18010006" hdg="-2.37404631" length="33.28091257">
                <line/>
            </geometry>