<?xml version='1.0' encoding='UTF-8'?>
<!-- generated on 2024-04-29 17:24:58 by Eclipse SUMO netconvert Version 1.12.0
<configuration xmlns:xsi="http://www.w3.org/2001/XMLSchema-instance" xsi:noNamespaceSchemaLocation="http://sumo.dlr.de/xsd/netconvertConfiguration.xsd">

    <input>
        <type-files value="/home/pi/Desktop/PI_Digital_Twin/Adapters/co_simulation/map_adjustor/xodr_to_netxml/opendrive_netconvert.typ.xml"/>
        <opendrive-files value="/home/pi/Desktop/PI_Digital_Twin/Adapters/co_simulation/map_adjustor/osm_to_xodr/teste2.xodr"/>
    </input>

    <output>
        <output-file value="/tmp/tmpnrgwe1me/teste2.net.xml"/>
        <output.original-names value="true"/>
    </output>

    <processing>
        <geometry.remove value="true"/>
        <geometry.min-radius.fix value="true"/>
        <geometry.max-grade.fix value="false"/>
    </processing>

    <tls_building>
        <tls.discard-loaded value="true"/>
        <tls.left-green.time value="0"/>
    </tls_building>

    <junctions>
        <rectangular-lane-cut value="true"/>
    </junctions>

    <formats>
        <opendrive.import-all-lanes value="true"/>
        <opendrive.curve-resolution value="1"/>
    </formats>

    <report>
        <aggregate-warnings value="5"/>
    </report>

</configuration>
-->
<net xmlns:xsi="http://www.w3.org/2001/XMLSchema-instance" version="1.9" junctionCornerDetail="5" rectangularLaneCut="true" limitTurnSpeed="5.50" xsi:noNamespaceSchemaLocation="http://sumo.dlr.de/xsd/net_file.xsd">
  <location netOffset="-0.31,-1.99" convBoundary="0.00,0.00,1162.54,1226.73" origBoundary="0.000000,0.000000,0.000000,0.000000" projParameter="+proj=tmerc +lat_0=40.62799802003675 +lon_0=-8.661929510719308 +x_0=0 +y_0=0 +k_0=1.0 +ellps=GRS80 +units=m +no_defs"/>
  <type id="bidirectional" priority="1" speed="1.39" disallow="pedestrian tram rail_urban rail rail_electric rail_fast ship" width="3.65"/>
  <type id="biking" priority="-1" speed="5.56" allow="bicycle" width="1.50"/>
  <type id="border" priority="0" speed="1.39" disallow="all" discard="1" width="0.10"/>
  <type id="driving" priority="1" speed="13.89" disallow="pedestrian tram rail_urban rail rail_electric rail_fast ship" width="3.65"/>
  <type id="entry" priority="1" speed="22.22" disallow="pedestrian tram rail_urban rail rail_electric rail_fast ship" width="3.65"/>
  <type id="exit" priority="1" speed="22.22" disallow="pedestrian tram rail_urban rail rail_electric rail_fast ship" width="3.65"/>
  <type id="median" priority="0" speed="1.39" disallow="all" discard="1" width="0.10"/>
  <type id="mwyEntry" priority="1" speed="22.22" allow="private emergency authority army vip passenger hov taxi bus coach delivery truck trailer motorcycle evehicle custom1 custom2" width="3.65"/>
  <type id="mwyExit" priority="1" speed="22.22" allow="private emergency authority army vip passenger hov taxi bus coach delivery truck trailer motorcycle evehicle custom1 custom2" width="3.65"/>
  <type id="none" priority="0" speed="1.39" disallow="all" discard="1" width="1.00"/>
  <type id="offRamp" priority="1" speed="22.22" allow="private emergency authority army vip passenger hov taxi bus coach delivery truck trailer motorcycle evehicle custom1 custom2" width="3.65"/>
  <type id="onRamp" priority="1" speed="22.22" allow="private emergency authority army vip passenger hov taxi bus coach delivery truck trailer motorcycle evehicle custom1 custom2" width="3.65"/>
  <type id="parking" priority="1" speed="1.39" disallow="pedestrian tram rail_urban rail rail_electric rail_fast ship" width="2.50"/>
  <type id="rail" priority="3" speed="33.33" allow="rail_urban rail rail_electric rail_fast" width="3.65"/>
  <type id="restricted" priority="0" speed="13.89" disallow="all" width="3.65"/>
  <type id="roadWorks" priority="0" speed="1.39" allow="authority" width="3.65"/>
  <type id="shoulder" priority="0" speed="1.39" disallow="all" discard="1" width="1.00"/>
  <type id="sidewalk" priority="-2" speed="2.78" allow="pedestrian" width="2.50"/>
  <type id="special1" priority="1" speed="22.22" allow="custom1" discard="1" width="3.65"/>
  <type id="special2" priority="1" speed="22.22" allow="custom2" discard="1" width="3.65"/>
  <type id="special3" priority="1" speed="22.22" allow="custom1 custom2" discard="1" width="3.65"/>
  <type id="stop" priority="1" speed="13.89" disallow="pedestrian tram rail_urban rail rail_electric rail_fast ship" width="3.65"/>
  <type id="tram" priority="2" speed="13.89" allow="tram" width="3.65"/>
  <edge id=":1_0" function="internal">
    <lane id=":1_0_0" index="0" allow="pedestrian" speed="13.89" length="15.62" width="2.80" shape="1038.42,886.23 1033.43,901.02">
      <param key="origId" value="1958_-2"/>
    </lane>
    <lane id=":1_0_1" index="1" disallow="pedestrian tram rail_urban rail rail_electric rail_fast ship" speed="13.89" length="15.62" width="3.35" shape="1035.51,885.24 1030.52,900.04">
      <param key="origId" value="1958_-1"/>
    </lane>
  </edge>
  <edge id=":1_2" function="internal">
    <lane id=":1_2_0" index="0" disallow="pedestrian tram rail_urban rail rail_electric rail_fast ship" speed="7.56" length="13.32" width="3.35" shape="1035.51,885.24 1033.74,889.12 1031.55,891.48 1028.94,892.34 1025.91,891.68">
      <param key="origId" value="1959_-1"/>
    </lane>
  </edge>
  <edge id=":1_3" function="internal">
    <lane id=":1_3_0" index="0" allow="pedestrian" speed="9.18" length="4.33" width="2.80" shape="1028.48,885.79 1032.09,888.18">
      <param key="origId" value="1960_-2"/>
    </lane>
    <lane id=":1_3_1" index="1" disallow="pedestrian tram rail_urban rail rail_electric rail_fast ship" speed="8.01" length="2.06" width="3.35" shape="1027.25,888.61 1028.95,889.77">
      <param key="origId" value="1960_-1"/>
    </lane>
  </edge>
  <edge id=":1_5" function="internal">
    <lane id=":1_5_0" index="0" allow="pedestrian" speed="9.18" length="13.56" width="2.80" shape="1032.09,888.18 1034.12,891.51 1034.56,895.80 1033.43,901.02">
      <param key="origId" value="1960_-2"/>
    </lane>
  </edge>
  <edge id=":1_6" function="internal">
    <lane id=":1_6_0" index="0" disallow="pedestrian tram rail_urban rail rail_electric rail_fast ship" speed="8.01" length="11.18" width="3.35" shape="1028.95,889.77 1029.78,890.34 1031.17,892.82 1031.42,896.05 1030.52,900.04">
      <param key="origId" value="1960_-1"/>
    </lane>
  </edge>
  <edge id=":10_0" function="internal">
    <lane id=":10_0_0" index="0" allow="pedestrian" speed="8.36" length="13.44" width="2.80" shape="1108.38,507.68 1103.18,502.17 1102.47,496.35">
      <param key="origId" value="1912_-2"/>
    </lane>
    <lane id=":10_0_1" index="1" disallow="pedestrian tram rail_urban rail rail_electric rail_fast ship" speed="6.43" length="11.07" width="3.35" shape="1109.88,505.00 1107.06,501.95 1106.78,498.29 1108.52,495.55">
      <param key="origId" value="1912_-1"/>
    </lane>
  </edge>
  <edge id=":10_5" function="internal">
    <lane id=":10_5_0" index="0" allow="pedestrian" speed="8.36" length="14.67" width="2.80" shape="1102.47,496.35 1102.37,495.53 1105.60,489.89 1112.50,487.39">
      <param key="origId" value="1912_-2"/>
    </lane>
  </edge>
  <edge id=":10_6" function="internal">
    <lane id=":10_6_0" index="0" disallow="pedestrian tram rail_urban rail rail_electric rail_fast ship" speed="6.43" length="4.58" width="3.35" shape="1108.52,495.55 1108.75,495.19 1112.67,493.82">
      <param key="origId" value="1912_-1"/>
    </lane>
  </edge>
  <edge id=":10_2" function="internal">
    <lane id=":10_2_0" index="0" allow="pedestrian" speed="13.89" length="22.95" width="2.80" shape="1091.80,483.91 1097.52,486.49 1101.73,487.52 1106.16,487.62 1112.50,487.39">
      <param key="origId" value="1913_-3"/>
    </lane>
    <lane id=":10_2_1" index="1" disallow="pedestrian tram rail_urban rail rail_electric rail_fast ship" speed="13.89" length="22.95" width="3.35" shape="1090.42,486.66 1096.54,489.43 1101.05,490.57 1105.79,490.70 1112.58,490.47">
      <param key="origId" value="1913_-2"/>
    </lane>
    <lane id=":10_2_2" index="2" disallow="pedestrian tram rail_urban rail rail_electric rail_fast ship" speed="13.89" length="22.95" width="3.35" shape="1088.91,489.65 1095.47,492.63 1100.30,493.88 1105.38,494.06 1112.67,493.82">
      <param key="origId" value="1913_-1"/>
    </lane>
  </edge>
  <edge id=":100_0" function="internal">
    <lane id=":100_0_0" index="0" allow="pedestrian" speed="4.45" length="4.28" width="2.80" shape="561.32,841.82 560.28,840.94 559.33,840.58 558.48,840.74 557.71,841.44">
      <param key="origId" value="1828_-3"/>
    </lane>
    <lane id=":100_0_1" index="1" disallow="pedestrian tram rail_urban rail rail_electric rail_fast ship" speed="6.43" length="9.86" width="3.35" shape="563.55,839.71 561.28,837.85 559.14,837.21 557.14,837.79 555.26,839.59">
      <param key="origId" value="1828_-2"/>
    </lane>
    <lane id=":100_0_2" index="2" disallow="pedestrian tram rail_urban rail rail_electric rail_fast ship" speed="8.00" length="15.96" width="3.35" shape="565.99,837.41 562.38,834.49 558.94,833.54 555.67,834.57 552.58,837.57">
      <param key="origId" value="1828_-1"/>
    </lane>
  </edge>
  <edge id=":100_3" function="internal">
    <lane id=":100_3_0" index="0" allow="pedestrian" speed="13.89" length="11.27" width="2.80" shape="564.36,831.80 562.63,834.81 561.30,836.79 559.84,838.68 557.71,841.44">
      <param key="origId" value="1829_-3"/>
    </lane>
    <lane id=":100_3_1" index="1" disallow="pedestrian tram rail_urban rail rail_electric rail_fast ship" speed="13.89" length="11.27" width="3.35" shape="561.67,830.32 560.00,833.22 558.72,835.12 557.31,836.93 555.26,839.59">
      <param key="origId" value="1829_-2"/>
    </lane>
    <lane id=":100_3_2" index="2" disallow="pedestrian tram rail_urban rail rail_electric rail_fast ship" speed="13.89" length="11.27" width="3.35" shape="558.73,828.71 557.13,831.48 555.90,833.30 554.54,835.03 552.58,837.57">
      <param key="origId" value="1829_-1"/>
    </lane>
  </edge>
  <edge id=":101_0" function="internal">
    <lane id=":101_0_0" index="0" allow="pedestrian" speed="13.89" length="28.13" width="2.80" shape="557.59,841.59 551.95,848.46 547.23,853.15 542.76,857.06 537.88,861.59">
      <param key="origId" value="1838_-2"/>
    </lane>
  </edge>
  <edge id=":101_1" function="internal">
    <lane id=":101_1_0" index="0" disallow="pedestrian tram rail_urban rail rail_electric rail_fast ship" speed="9.86" length="27.57" width="3.35" shape="555.14,839.75 527.58,838.90">
      <param key="origId" value="1839_-2"/>
    </lane>
  </edge>
  <edge id=":101_2" function="internal">
    <lane id=":101_2_0" index="0" disallow="pedestrian tram rail_urban rail rail_electric rail_fast ship" speed="13.89" length="27.70" width="3.35" shape="555.14,839.75 549.59,846.48 544.96,851.07 540.57,854.91 535.71,859.41">
      <param key="origId" value="1838_-1"/>
    </lane>
  </edge>
  <edge id=":101_3" function="internal">
    <lane id=":101_3_0" index="0" disallow="pedestrian tram rail_urban rail rail_electric rail_fast ship" speed="9.64" length="26.29" width="3.35" shape="552.46,837.73 526.53,842.08">
      <param key="origId" value="1839_-1"/>
    </lane>
  </edge>
  <edge id=":102_0" function="internal">
    <lane id=":102_0_0" index="0" allow="pedestrian" speed="13.89" length="12.34" width="2.80" shape="535.67,776.83 536.56,779.91 536.30,782.53 536.40,784.80 538.34,786.81">
      <param key="origId" value="1723_-3"/>
    </lane>
    <lane id=":102_0_1" index="1" disallow="pedestrian tram rail_urban rail rail_electric rail_fast ship" speed="13.89" length="12.34" width="3.35" shape="533.02,778.39 534.15,781.85 534.13,784.75 534.50,787.24 536.82,789.48">
      <param key="origId" value="1723_-2"/>
    </lane>
    <lane id=":102_0_2" index="2" disallow="pedestrian tram rail_urban rail rail_electric rail_fast ship" speed="13.89" length="12.34" width="3.35" shape="530.14,780.09 531.53,783.97 531.75,787.16 532.42,789.89 535.17,792.39">
      <param key="origId" value="1723_-1"/>
    </lane>
  </edge>
  <edge id=":102_3" function="internal">
    <lane id=":102_3_0" index="0" allow="pedestrian" speed="13.89" length="11.92" width="2.80" shape="525.02,785.33 529.10,784.89 532.00,784.64 534.74,785.11 538.34,786.81">
      <param key="origId" value="1724_-3"/>
    </lane>
    <lane id=":102_3_1" index="1" disallow="pedestrian tram rail_urban rail rail_electric rail_fast ship" speed="13.89" length="11.92" width="3.35" shape="525.23,788.39 528.78,787.99 531.30,787.71 533.69,788.04 536.82,789.48">
      <param key="origId" value="1724_-2"/>
    </lane>
    <lane id=":102_3_2" index="2" disallow="pedestrian tram rail_urban rail rail_electric rail_fast ship" speed="13.22" length="11.92" width="3.35" shape="525.46,791.74 528.43,791.36 530.55,791.04 532.55,791.23 535.17,792.39">
      <param key="origId" value="1724_-1"/>
    </lane>
  </edge>
  <edge id=":103_0" function="internal">
    <lane id=":103_0_0" index="0" allow="pedestrian" speed="22.22" length="11.41" width="2.80" shape="1131.83,587.03 1130.13,589.84 1128.90,591.75 1127.88,593.75 1126.81,596.83">
      <param key="origId" value="1706_-2"/>
    </lane>
    <lane id=":103_0_1" index="1" disallow="pedestrian tram rail_urban rail rail_electric rail_fast ship" speed="22.22" length="11.41" width="3.35" shape="1129.16,585.50 1127.35,588.49 1126.06,590.53 1125.00,592.66 1123.87,595.94">
      <param key="origId" value="1706_-1"/>
    </lane>
  </edge>
  <edge id=":103_2" function="internal">
    <lane id=":103_2_0" index="0" allow="pedestrian" speed="9.28" length="11.13" width="2.80" shape="1124.01,585.00 1126.06,587.46 1127.21,590.25 1127.46,593.37 1126.81,596.83">
      <param key="origId" value="1707_-2"/>
    </lane>
    <lane id=":103_2_1" index="1" disallow="pedestrian tram rail_urban rail rail_electric rail_fast ship" speed="8.04" length="11.13" width="3.35" shape="1121.94,587.27 1123.39,589.04 1124.20,591.07 1124.36,593.37 1123.87,595.94">
      <param key="origId" value="1707_-1"/>
    </lane>
  </edge>
  <edge id=":105_0" function="internal">
    <lane id=":105_0_0" index="0" allow="pedestrian" speed="11.11" length="0.14" width="2.80" shape="605.53,858.86 605.69,859.04">
      <param key="origId" value="1853_-3"/>
    </lane>
    <lane id=":105_0_1" index="1" disallow="pedestrian tram rail_urban rail rail_electric rail_fast ship" speed="11.11" length="0.14" width="3.35" shape="603.32,861.00 603.37,861.06">
      <param key="origId" value="1853_-2"/>
    </lane>
    <lane id=":105_0_2" index="2" disallow="pedestrian tram rail_urban rail rail_electric rail_fast ship" speed="11.11" length="0.14" width="3.35" shape="600.91,863.32 600.85,863.26">
      <param key="origId" value="1853_-1"/>
    </lane>
  </edge>
  <edge id=":106_0" function="internal">
    <lane id=":106_0_0" index="0" disallow="pedestrian tram rail_urban rail rail_electric rail_fast ship" speed="20.84" length="2.81" width="3.35" shape="882.59,1150.83 884.71,1152.67">
      <param key="origId" value="1734_-1"/>
    </lane>
  </edge>
  <edge id=":107_0" function="internal">
    <lane id=":107_0_0" index="0" disallow="pedestrian tram rail_urban rail rail_electric rail_fast ship" speed="20.84" length="2.89" width="3.35" shape="882.23,1155.38 880.05,1153.47">
      <param key="origId" value="1735_-1"/>
    </lane>
  </edge>
  <edge id=":108_0" function="internal">
    <lane id=":108_0_0" index="0" allow="pedestrian" speed="13.89" length="3.96" width="2.80" shape="797.23,1081.38 796.39,1080.70 795.56,1080.56 794.71,1080.43 793.82,1079.79">
      <param key="origId" value="1732_-2"/>
    </lane>
    <lane id=":108_0_1" index="1" disallow="pedestrian tram rail_urban rail rail_electric rail_fast ship" speed="13.89" length="3.96" width="3.35" shape="799.67,1079.51 798.80,1078.79 797.94,1078.62 797.07,1078.46 796.15,1077.78">
      <param key="origId" value="1732_-1"/>
    </lane>
  </edge>
  <edge id=":108_2" function="internal">
    <lane id=":108_2_0" index="0" allow="pedestrian" speed="13.89" length="3.56" width="2.80" shape="797.30,1080.95 796.36,1080.44 795.51,1080.42 794.68,1080.38 793.82,1079.79">
      <param key="origId" value="1733_-2"/>
    </lane>
    <lane id=":108_2_1" index="1" disallow="pedestrian tram rail_urban rail rail_electric rail_fast ship" speed="13.89" length="3.56" width="3.35" shape="799.39,1078.70 798.93,1077.93 798.99,1077.19 799.07,1076.43 798.68,1075.59">
      <param key="origId" value="1733_-1"/>
    </lane>
  </edge>
  <edge id=":109_0" function="internal">
    <lane id=":109_0_0" index="0" allow="pedestrian" speed="11.11" length="4.22" width="2.80" shape="794.56,1049.24 795.14,1050.29 795.19,1051.20 795.23,1052.11 795.82,1053.15">
      <param key="origId" value="1730_-2"/>
    </lane>
    <lane id=":109_0_1" index="1" disallow="pedestrian tram rail_urban rail rail_electric rail_fast ship" speed="11.11" length="4.22" width="3.35" shape="792.26,1051.28 792.84,1052.33 792.89,1053.25 792.94,1054.16 793.53,1055.21">
      <param key="origId" value="1730_-1"/>
    </lane>
  </edge>
  <edge id=":109_2" function="internal">
    <lane id=":109_2_0" index="0" disallow="pedestrian tram rail_urban rail rail_electric rail_fast ship" speed="12.50" length="4.37" width="3.35" shape="789.75,1053.50 790.74,1054.32 791.61,1054.70 792.39,1055.14 793.14,1056.12">
      <param key="origId" value="1731_-1"/>
    </lane>
  </edge>
  <edge id=":11_0" function="internal">
    <lane id=":11_0_0" index="0" allow="pedestrian" speed="13.89" length="2.98" width="2.80" shape="1122.61,1046.71 1120.49,1044.64">
      <param key="origId" value="1850_-2"/>
      <param key="signalID" value="155"/>
    </lane>
    <lane id=":11_0_1" index="1" disallow="pedestrian tram rail_urban rail rail_electric rail_fast ship" speed="13.89" length="2.98" width="3.35" shape="1124.78,1044.53 1122.63,1042.43">
      <param key="origId" value="1850_-1"/>
      <param key="signalID" value="155"/>
    </lane>
  </edge>
  <edge id=":110_0" function="internal">
    <lane id=":110_0_0" index="0" allow="pedestrian" speed="11.11" length="0.30" width="2.80" shape="665.60,954.73 665.39,954.52">
      <param key="origId" value="1851_-3"/>
    </lane>
    <lane id=":110_0_1" index="1" disallow="pedestrian tram rail_urban rail rail_electric rail_fast ship" speed="11.11" length="0.30" width="3.35" shape="667.77,952.55 667.56,952.34">
      <param key="origId" value="1851_-2"/>
    </lane>
    <lane id=":110_0_2" index="2" disallow="pedestrian tram rail_urban rail rail_electric rail_fast ship" speed="11.11" length="0.30" width="3.35" shape="670.14,950.18 669.92,949.96">
      <param key="origId" value="1851_-1"/>
    </lane>
  </edge>
  <edge id=":111_0" function="internal">
    <lane id=":111_0_0" index="0" allow="pedestrian" speed="13.89" length="13.98" width="2.80" shape="885.05,1169.30 874.85,1159.84">
      <param key="origId" value="1971_-2"/>
    </lane>
    <lane id=":111_0_1" index="1" disallow="pedestrian tram rail_urban rail rail_electric rail_fast ship" speed="13.89" length="13.98" width="3.35" shape="887.18,1167.08 876.87,1157.52">
      <param key="origId" value="1971_-1"/>
    </lane>
  </edge>
  <edge id=":111_2" function="internal">
    <lane id=":111_2_0" index="0" allow="pedestrian" speed="5.51" length="6.42" width="2.80" shape="898.38,1146.64 897.26,1148.35 896.83,1149.86 897.10,1151.18 898.06,1152.29">
      <param key="origId" value="1972_-2"/>
    </lane>
    <lane id=":111_2_1" index="1" disallow="pedestrian tram rail_urban rail rail_electric rail_fast ship" speed="7.21" length="11.44" width="3.35" shape="895.99,1144.70 894.16,1147.60 893.58,1150.24 894.25,1152.61 896.17,1154.72">
      <param key="origId" value="1972_-1"/>
    </lane>
  </edge>
  <edge id=":111_4" function="internal">
    <lane id=":111_4_0" index="0" disallow="pedestrian tram rail_urban rail rail_electric rail_fast ship" speed="10.26" length="24.60" width="3.35" shape="895.99,1144.70 889.55,1151.99 884.21,1156.55 879.98,1158.40 876.87,1157.52">
      <param key="origId" value="1973_-1"/>
    </lane>
  </edge>
  <edge id=":111_5" function="internal">
    <lane id=":111_5_0" index="0" allow="pedestrian" speed="11.11" length="12.76" width="2.80" shape="888.44,1144.14 891.18,1146.69 893.10,1148.38 895.10,1149.99 898.06,1152.29">
      <param key="origId" value="1974_-2"/>
    </lane>
    <lane id=":111_5_1" index="1" disallow="pedestrian tram rail_urban rail rail_electric rail_fast ship" speed="11.11" length="12.76" width="3.35" shape="886.33,1146.38 889.14,1148.99 891.11,1150.72 893.15,1152.37 896.17,1154.72">
      <param key="origId" value="1974_-1"/>
    </lane>
  </edge>
  <edge id=":111_7" function="internal">
    <lane id=":111_7_0" index="0" disallow="pedestrian tram rail_urban rail rail_electric rail_fast ship" speed="6.78" length="17.89" width="3.35" shape="886.33,1146.38 888.14,1152.72 887.17,1156.69 883.41,1158.29 880.31,1157.93">
      <param key="origId" value="1975_-1"/>
    </lane>
  </edge>
  <edge id=":111_8" function="internal">
    <lane id=":111_8_0" index="0" disallow="pedestrian tram rail_urban rail rail_electric rail_fast ship" speed="6.78" length="3.46" width="3.35" shape="880.31,1157.93 876.87,1157.52">
      <param key="origId" value="1975_-1"/>
    </lane>
  </edge>
  <edge id=":112_0" function="internal">
    <lane id=":112_0_0" index="0" allow="pedestrian" speed="11.00" length="9.10" width="2.80" shape="1108.68,606.53 1106.24,605.75 1104.43,605.90 1102.57,606.61 1099.98,607.49">
      <param key="origId" value="1704_-2"/>
    </lane>
    <lane id=":112_0_1" index="1" disallow="pedestrian tram rail_urban rail rail_electric rail_fast ship" speed="12.18" length="11.22" width="3.35" shape="1109.97,603.74 1106.96,602.71 1104.71,602.76 1102.40,603.49 1099.20,604.51">
      <param key="origId" value="1704_-1"/>
    </lane>
  </edge>
  <edge id=":112_2" function="internal">
    <lane id=":112_2_0" index="0" disallow="pedestrian tram rail_urban rail rail_electric rail_fast ship" speed="9.29" length="9.10" width="3.35" shape="1109.97,603.74 1107.52,602.41 1105.63,600.95 1104.31,599.37 1103.55,597.67">
      <param key="origId" value="1705_-1"/>
    </lane>
  </edge>
  <edge id=":113_0" function="internal">
    <lane id=":113_0_0" index="0" allow="pedestrian" speed="10.53" length="10.31" width="2.80" shape="1100.53,598.27 1099.88,594.92 1099.82,591.93 1100.35,589.29 1101.47,587.02">
      <param key="origId" value="1922_-2"/>
    </lane>
    <lane id=":113_0_1" index="1" disallow="pedestrian tram rail_urban rail rail_electric rail_fast ship" speed="9.36" length="10.31" width="3.35" shape="1103.50,597.48 1102.96,594.79 1102.86,592.44 1103.22,590.43 1104.02,588.75">
      <param key="origId" value="1922_-1"/>
    </lane>
  </edge>
  <edge id=":113_2" function="internal">
    <lane id=":113_2_0" index="0" allow="pedestrian" speed="22.22" length="11.00" width="2.80" shape="1094.59,595.07 1096.90,592.93 1098.38,591.35 1099.69,589.63 1101.47,587.02">
      <param key="origId" value="1921_-2"/>
    </lane>
    <lane id=":113_2_1" index="1" disallow="pedestrian tram rail_urban rail rail_electric rail_fast ship" speed="22.22" length="11.00" width="3.35" shape="1096.66,597.35 1099.13,595.05 1100.72,593.37 1102.12,591.53 1104.02,588.75">
      <param key="origId" value="1921_-1"/>
    </lane>
  </edge>
  <edge id=":114_0" function="internal">
    <lane id=":114_0_0" index="0" allow="pedestrian" speed="22.22" length="12.99" width="2.80" shape="1106.22,582.11 1109.39,579.97 1111.32,578.18 1113.06,576.15 1115.64,573.28">
      <param key="origId" value="1712_-2"/>
    </lane>
    <lane id=":114_0_1" index="1" disallow="pedestrian tram rail_urban rail rail_electric rail_fast ship" speed="22.22" length="13.81" width="3.35" shape="1107.81,584.74 1111.19,582.48 1113.26,580.59 1115.12,578.44 1117.87,575.40">
      <param key="origId" value="1712_-1"/>
    </lane>
  </edge>
  <edge id=":114_2" function="internal">
    <lane id=":114_2_0" index="0" disallow="pedestrian tram rail_urban rail rail_electric rail_fast ship" speed="8.68" length="13.17" width="3.35" shape="1107.81,584.74 1111.14,583.23 1114.27,582.85 1117.22,583.59 1119.97,585.47">
      <param key="origId" value="1713_-1"/>
    </lane>
  </edge>
  <edge id=":115_0" function="internal">
    <lane id=":115_0_0" index="0" allow="pedestrian" speed="11.19" length="8.81" width="2.80" shape="1113.75,612.46 1112.68,610.38 1111.90,608.90 1110.82,607.74 1108.86,606.61">
      <param key="origId" value="1846_-2"/>
    </lane>
    <lane id=":115_0_1" index="1" disallow="pedestrian tram rail_urban rail rail_electric rail_fast ship" speed="12.47" length="8.81" width="3.35" shape="1116.42,610.94 1115.06,608.37 1114.02,606.58 1112.62,605.19 1110.16,603.82">
      <param key="origId" value="1846_-1"/>
    </lane>
  </edge>
  <edge id=":115_2" function="internal">
    <lane id=":115_2_0" index="0" allow="pedestrian" speed="9.88" length="7.95" width="2.80" shape="1117.80,606.55 1115.38,607.27 1113.08,607.52 1110.91,607.30 1108.86,606.61">
      <param key="origId" value="1847_-2"/>
    </lane>
    <lane id=":115_2_1" index="1" disallow="pedestrian tram rail_urban rail rail_electric rail_fast ship" speed="8.56" length="7.95" width="3.35" shape="1116.70,603.68 1114.88,604.23 1113.19,604.43 1111.61,604.30 1110.16,603.82">
      <param key="origId" value="1847_-1"/>
    </lane>
  </edge>
  <edge id=":116_0" function="internal">
    <lane id=":116_0_0" index="0" allow="pedestrian" speed="13.89" length="14.41" width="2.80" shape="1153.40,516.44 1151.70,530.75">
      <param key="origId" value="1716_-2"/>
    </lane>
    <lane id=":116_0_1" index="1" disallow="pedestrian tram rail_urban rail rail_electric rail_fast ship" speed="13.89" length="14.41" width="3.35" shape="1150.34,516.15 1148.64,530.46">
      <param key="origId" value="1716_-1"/>
    </lane>
  </edge>
  <edge id=":116_2" function="internal">
    <lane id=":116_2_0" index="0" disallow="pedestrian tram rail_urban rail rail_electric rail_fast ship" speed="6.56" length="9.42" width="3.35" shape="1150.34,516.15 1149.72,518.71 1148.46,520.43 1146.56,521.31 1144.01,521.34">
      <param key="origId" value="1717_-1"/>
    </lane>
  </edge>
  <edge id=":117_0" function="internal">
    <lane id=":117_0_0" index="0" allow="pedestrian" speed="18.05" length="11.13" width="2.80" shape="1126.75,597.02 1126.33,600.17 1126.90,602.39 1127.66,604.66 1127.83,607.92">
      <param key="origId" value="1848_-2"/>
    </lane>
    <lane id=":117_0_1" index="1" disallow="pedestrian tram rail_urban rail rail_electric rail_fast ship" speed="18.05" length="11.70" width="3.35" shape="1123.81,596.13 1123.33,599.45 1123.88,601.79 1124.62,604.18 1124.77,607.62">
      <param key="origId" value="1848_-1"/>
    </lane>
  </edge>
  <edge id=":117_2" function="internal">
    <lane id=":117_2_0" index="0" disallow="pedestrian tram rail_urban rail rail_electric rail_fast ship" speed="9.68" length="10.51" width="3.35" shape="1123.81,596.13 1122.76,598.64 1121.26,600.72 1119.32,602.37 1116.93,603.59">
      <param key="origId" value="1849_-1"/>
    </lane>
  </edge>
  <edge id=":118_0" function="internal">
    <lane id=":118_0_0" index="0" allow="pedestrian" speed="13.89" length="14.15" width="2.80" shape="460.04,916.30 449.98,906.35">
      <param key="origId" value="1784_-2"/>
    </lane>
    <lane id=":118_0_1" index="1" disallow="pedestrian tram rail_urban rail rail_electric rail_fast ship" speed="13.89" length="14.15" width="3.35" shape="462.20,914.11 452.14,904.16">
      <param key="origId" value="1784_-1"/>
    </lane>
  </edge>
  <edge id=":118_2" function="internal">
    <lane id=":118_2_0" index="0" disallow="pedestrian tram rail_urban rail rail_electric rail_fast ship" speed="6.54" length="9.15" width="3.35" shape="462.20,914.11 460.68,912.11 460.18,910.11 460.68,908.11 462.19,906.10">
      <param key="origId" value="1785_-1"/>
    </lane>
  </edge>
  <edge id=":119_0" function="internal">
    <lane id=":119_0_0" index="0" allow="pedestrian" speed="8.05" length="3.74" width="2.80" shape="475.27,900.74 473.17,897.64">
      <param key="origId" value="1782_-2"/>
    </lane>
    <lane id=":119_0_1" index="1" disallow="pedestrian tram rail_urban rail rail_electric rail_fast ship" speed="6.68" length="4.09" width="3.35" shape="477.56,898.68 476.16,896.64 475.77,895.08">
      <param key="origId" value="1782_-1"/>
    </lane>
  </edge>
  <edge id=":119_4" function="internal">
    <lane id=":119_4_0" index="0" allow="pedestrian" speed="8.05" length="9.79" width="2.80" shape="473.17,897.64 472.44,894.60 473.11,891.60 475.15,888.65">
      <param key="origId" value="1782_-2"/>
    </lane>
  </edge>
  <edge id=":119_5" function="internal">
    <lane id=":119_5_0" index="0" disallow="pedestrian tram rail_urban rail rail_electric rail_fast ship" speed="6.68" length="4.80" width="3.35" shape="475.77,895.08 475.66,894.63 476.08,892.67 477.40,890.75">
      <param key="origId" value="1782_-1"/>
    </lane>
  </edge>
  <edge id=":119_2" function="internal">
    <lane id=":119_2_0" index="0" allow="pedestrian" speed="13.89" length="13.37" width="2.80" shape="465.84,898.15 475.15,888.65">
      <param key="origId" value="1783_-2"/>
    </lane>
    <lane id=":119_2_1" index="1" disallow="pedestrian tram rail_urban rail rail_electric rail_fast ship" speed="13.89" length="13.37" width="3.35" shape="468.01,900.34 477.40,890.75">
      <param key="origId" value="1783_-1"/>
    </lane>
  </edge>
  <edge id=":12_0" function="internal">
    <lane id=":12_0_0" index="0" allow="pedestrian" speed="9.43" length="20.13" width="2.80" shape="714.30,584.21 709.84,580.87 707.49,576.94 707.26,572.41 709.13,567.30">
      <param key="origId" value="1953_-2"/>
    </lane>